* Synopsys Nettran: RHEL64 R-2020.09.5783960 2020/08/19 
* Created:  9/12/2024  12:23   
* Options: -verilog s13207_net.v -sp gsclib045.cdl -verilog-b0 VSS -verilog-b1 VDD -outType SPICE -outName s13207_net_hr.sp 

.GLOBAL VDD VSS 

.SUBCKT XOR3XL A B C VDD VSS Y 
Mmn3 n56 n60 n50 VSS g45n1svt M=1 L=45n W=190n 
Mmn10 n62 A VSS VSS g45n1svt M=1 L=45n W=190n 
Mmn4 n44 C n50 VSS g45n1svt M=1 L=45n W=190n 
Mmn8 n60 C VSS VSS g45n1svt M=1 L=45n W=190n 
Mmn9 n61 B VSS VSS g45n1svt M=1 L=45n W=190n 
Mmn6 n56 B n11 VSS g45n1svt M=1 L=45n W=190n 
Mmn1 n62 B n44 VSS g45n1svt M=1 L=45n W=190n 
Mmn2 n11 n61 n44 VSS g45n1svt M=1 L=45n W=190n 
Mmn0 n11 n62 VSS VSS g45n1svt M=1 L=45n W=190n 
Mmn5 n62 n61 n56 VSS g45n1svt M=1 L=45n W=190n 
Mmn7 Y n50 VSS VSS g45n1svt M=1 L=45n W=190n 
Mmp10 n62 A VDD VDD g45p1svt M=1 L=45n W=310n 
Mmp1 n44 n61 n62 VDD g45p1svt M=1 L=45n W=310n 
Mmp7 Y n50 VDD VDD g45p1svt M=1 L=45n W=205n 
Mmp2 n44 B n11 VDD g45p1svt M=1 L=45n W=310n 
Mmp9 n61 B VDD VDD g45p1svt M=1 L=45n W=310n 
Mmp3 n50 C n56 VDD g45p1svt M=1 L=45n W=310n 
Mmp8 n60 C VDD VDD g45p1svt M=1 L=45n W=310n 
Mmp4 n50 n60 n44 VDD g45p1svt M=1 L=45n W=310n 
Mmp0 n11 n62 VDD VDD g45p1svt M=1 L=45n W=310n 
Mmp6 n11 n61 n56 VDD g45p1svt M=1 L=45n W=310n 
Mmp5 n56 B n62 VDD g45p1svt M=1 L=45n W=310n 
.ENDS

.SUBCKT XOR3X1 A B C VDD VSS Y 
Mmn3 n56 n60 n50 VSS g45n1svt M=1 L=45n W=190n 
Mmn10 n62 A VSS VSS g45n1svt M=1 L=45n W=205n 
Mmn4 n44 C n50 VSS g45n1svt M=1 L=45n W=190n 
Mmn8 n60 C VSS VSS g45n1svt M=1 L=45n W=190n 
Mmn9 n61 B VSS VSS g45n1svt M=1 L=45n W=190n 
Mmn6 n56 B n11 VSS g45n1svt M=1 L=45n W=190n 
Mmn1 n62 B n44 VSS g45n1svt M=1 L=45n W=205n 
Mmn2 n11 n61 n44 VSS g45n1svt M=1 L=45n W=190n 
Mmn0 n11 n62 VSS VSS g45n1svt M=1 L=45n W=190n 
Mmn5 n62 n61 n56 VSS g45n1svt M=1 L=45n W=205n 
Mmn7 Y n50 VSS VSS g45n1svt M=1 L=45n W=205n 
Mmp10 n62 A VDD VDD g45p1svt M=1 L=45n W=390n 
Mmp1 n44 n61 n62 VDD g45p1svt M=1 L=45n W=390n 
Mmp7 Y n50 VDD VDD g45p1svt M=1 L=45n W=390n 
Mmp2 n44 B n11 VDD g45p1svt M=1 L=45n W=310n 
Mmp9 n61 B VDD VDD g45p1svt M=1 L=45n W=310n 
Mmp3 n50 C n56 VDD g45p1svt M=1 L=45n W=310n 
Mmp8 n60 C VDD VDD g45p1svt M=1 L=45n W=310n 
Mmp4 n50 n60 n44 VDD g45p1svt M=1 L=45n W=310n 
Mmp0 n11 n62 VDD VDD g45p1svt M=1 L=45n W=310n 
Mmp6 n11 n61 n56 VDD g45p1svt M=1 L=45n W=310n 
Mmp5 n56 B n62 VDD g45p1svt M=1 L=45n W=390n 
.ENDS

.SUBCKT XOR2XL A B VDD VSS Y 
Mmn1 n2 B VSS VSS g45n1svt M=1 L=45n W=145n 
Mmn0 n1 A VSS VSS g45n1svt M=1 L=45n W=145n 
Mmn5 Y n0 VSS VSS g45n1svt M=1 L=45n W=145n 
Mmn3 n0 B net131 VSS g45n1svt M=1 L=45n W=145n 
Mmn4 n0 n2 n1 VSS g45n1svt M=1 L=45n W=145n 
Mmn2 net131 n1 VSS VSS g45n1svt M=1 L=45n W=145n 
Mmp3 n0 n2 net130 VDD g45p1svt M=1 L=45n W=215n 
Mmp1 n2 B VDD VDD g45p1svt M=1 L=45n W=215n 
Mmp4 n1 B n0 VDD g45p1svt M=1 L=45n W=215n 
Mmp0 n1 A VDD VDD g45p1svt M=1 L=45n W=215n 
Mmp5 Y n0 VDD VDD g45p1svt M=1 L=45n W=215n 
Mmp2 net130 n1 VDD VDD g45p1svt M=1 L=45n W=215n 
.ENDS

.SUBCKT XOR2X4 A B VDD VSS Y 
Mmn1 n2 B VSS VSS g45n1svt M=1 L=45n W=145n 
Mmn0 n1 A VSS VSS g45n1svt M=1 L=45n W=145n 
Mmn5 Y n0 VSS VSS g45n1svt M=1 L=45n W=1.04u 
Mmn3 n0 B net131 VSS g45n1svt M=1 L=45n W=260n 
Mmn4 n0 n2 n1 VSS g45n1svt M=1 L=45n W=260n 
Mmn2 net131 n1 VSS VSS g45n1svt M=1 L=45n W=260n 
Mmp3 n0 n2 net130 VDD g45p1svt M=1 L=45n W=390n 
Mmp1 n2 B VDD VDD g45p1svt M=1 L=45n W=215n 
Mmp4 n1 B n0 VDD g45p1svt M=1 L=45n W=390n 
Mmp0 n1 A VDD VDD g45p1svt M=1 L=45n W=215n 
Mmp5 Y n0 VDD VDD g45p1svt M=1 L=45n W=1.56u 
Mmp2 net130 n1 VDD VDD g45p1svt M=1 L=45n W=390n 
.ENDS

.SUBCKT XOR2X2 A B VDD VSS Y 
Mmn1 n2 B VSS VSS g45n1svt M=1 L=45n W=145n 
Mmn0 n1 A VSS VSS g45n1svt M=1 L=45n W=145n 
Mmn5 Y n0 VSS VSS g45n1svt M=1 L=45n W=520n 
Mmn3 n0 B net131 VSS g45n1svt M=1 L=45n W=145n 
Mmn4 n0 n2 n1 VSS g45n1svt M=1 L=45n W=145n 
Mmn2 net131 n1 VSS VSS g45n1svt M=1 L=45n W=145n 
Mmp3 n0 n2 net130 VDD g45p1svt M=1 L=45n W=215n 
Mmp1 n2 B VDD VDD g45p1svt M=1 L=45n W=215n 
Mmp4 n1 B n0 VDD g45p1svt M=1 L=45n W=215n 
Mmp0 n1 A VDD VDD g45p1svt M=1 L=45n W=215n 
Mmp5 Y n0 VDD VDD g45p1svt M=1 L=45n W=780n 
Mmp2 net130 n1 VDD VDD g45p1svt M=1 L=45n W=215n 
.ENDS

.SUBCKT XNOR3XL A B C VDD VSS Y 
Mmn8 Y n11 VSS VSS g45n1svt M=1 L=45n W=205n 
Mmn10 n12 n61 n8 VSS g45n1svt M=1 L=45n W=205n 
Mmn2 n9 n61 n62 VSS g45n1svt M=1 L=45n W=190n 
Mmn1 n9 B n8 VSS g45n1svt M=1 L=45n W=190n 
Mmn9 n8 n62 VSS VSS g45n1svt M=1 L=45n W=190n 
Mmn11 n12 B n62 VSS g45n1svt M=1 L=45n W=190n 
Mmn6 n11 C n9 VSS g45n1svt M=1 L=45n W=190n 
Mmn5 n11 n60 n12 VSS g45n1svt M=1 L=45n W=190n 
Mmn7 n60 C VSS VSS g45n1svt M=1 L=45n W=190n 
Mmn4 n61 B VSS VSS g45n1svt M=1 L=45n W=190n 
Mmn3 n62 A VSS VSS g45n1svt M=1 L=45n W=205n 
Mmp8 Y n11 VDD VDD g45p1svt M=1 L=45n W=205n 
Mmp3 n62 A VDD VDD g45p1svt M=1 L=45n W=310n 
Mmp6 n9 n60 n11 VDD g45p1svt M=1 L=45n W=310n 
Mmp11 n62 n61 n12 VDD g45p1svt M=1 L=45n W=310n 
Mmp2 n62 B n9 VDD g45p1svt M=1 L=45n W=310n 
Mmp5 n12 C n11 VDD g45p1svt M=1 L=45n W=310n 
Mmp1 n8 n61 n9 VDD g45p1svt M=1 L=45n W=310n 
Mmp10 n8 B n12 VDD g45p1svt M=1 L=45n W=310n 
Mmp4 n61 B VDD VDD g45p1svt M=1 L=45n W=310n 
Mmp9 n8 n62 VDD VDD g45p1svt M=1 L=45n W=310n 
Mmp7 n60 C VDD VDD g45p1svt M=1 L=45n W=310n 
.ENDS

.SUBCKT XNOR3X1 A B C VDD VSS Y 
Mmn8 Y n11 VSS VSS g45n1svt M=1 L=45n W=205n 
Mmn10 n12 n61 n8 VSS g45n1svt M=1 L=45n W=205n 
Mmn2 n9 n61 n62 VSS g45n1svt M=1 L=45n W=205n 
Mmn1 n9 B n8 VSS g45n1svt M=1 L=45n W=190n 
Mmn9 n8 n62 VSS VSS g45n1svt M=1 L=45n W=190n 
Mmn11 n12 B n62 VSS g45n1svt M=1 L=45n W=205n 
Mmn6 n11 C n9 VSS g45n1svt M=1 L=45n W=190n 
Mmn5 n11 n60 n12 VSS g45n1svt M=1 L=45n W=190n 
Mmn7 n60 C VSS VSS g45n1svt M=1 L=45n W=190n 
Mmn4 n61 B VSS VSS g45n1svt M=1 L=45n W=190n 
Mmn3 n62 A VSS VSS g45n1svt M=1 L=45n W=205n 
Mmp8 Y n11 VDD VDD g45p1svt M=1 L=45n W=390n 
Mmp3 n62 A VDD VDD g45p1svt M=1 L=45n W=390n 
Mmp6 n9 n60 n11 VDD g45p1svt M=1 L=45n W=310n 
Mmp11 n62 n61 n12 VDD g45p1svt M=1 L=45n W=390n 
Mmp2 n62 B n9 VDD g45p1svt M=1 L=45n W=390n 
Mmp5 n12 C n11 VDD g45p1svt M=1 L=45n W=310n 
Mmp1 n8 n61 n9 VDD g45p1svt M=1 L=45n W=310n 
Mmp10 n8 B n12 VDD g45p1svt M=1 L=45n W=310n 
Mmp4 n61 B VDD VDD g45p1svt M=1 L=45n W=310n 
Mmp9 n8 n62 VDD VDD g45p1svt M=1 L=45n W=310n 
Mmp7 n60 C VDD VDD g45p1svt M=1 L=45n W=310n 
.ENDS

.SUBCKT XNOR2XL A B VDD VSS Y 
Mmn1 n2 B VSS VSS g45n1svt M=1 L=45n W=145n 
Mmn2 net145 n1 VSS VSS g45n1svt M=1 L=45n W=145n 
Mmn3 n0 n2 net145 VSS g45n1svt M=1 L=45n W=145n 
Mmn5 Y n0 VSS VSS g45n1svt M=1 L=45n W=145n 
Mmn0 n1 A VSS VSS g45n1svt M=1 L=45n W=145n 
Mmn4 n0 B n1 VSS g45n1svt M=1 L=45n W=145n 
Mmp0 n1 A VDD VDD g45p1svt M=1 L=45n W=215n 
Mmp4 n1 n2 n0 VDD g45p1svt M=1 L=45n W=215n 
Mmp2 net112 n1 VDD VDD g45p1svt M=1 L=45n W=215n 
Mmp1 n2 B VDD VDD g45p1svt M=1 L=45n W=215n 
Mmp3 n0 B net112 VDD g45p1svt M=1 L=45n W=215n 
Mmp5 Y n0 VDD VDD g45p1svt M=1 L=45n W=215n 
.ENDS

.SUBCKT XNOR2X4 A B VDD VSS Y 
Mmn1 n2 B VSS VSS g45n1svt M=1 L=45n W=145n 
Mmn2 net145 n1 VSS VSS g45n1svt M=1 L=45n W=260n 
Mmn3 n0 n2 net145 VSS g45n1svt M=1 L=45n W=260n 
Mmn5 Y n0 VSS VSS g45n1svt M=1 L=45n W=1.04u 
Mmn0 n1 A VSS VSS g45n1svt M=1 L=45n W=145n 
Mmn4 n0 B n1 VSS g45n1svt M=1 L=45n W=260n 
Mmp0 n1 A VDD VDD g45p1svt M=1 L=45n W=215n 
Mmp4 n1 n2 n0 VDD g45p1svt M=1 L=45n W=390n 
Mmp2 net112 n1 VDD VDD g45p1svt M=1 L=45n W=390n 
Mmp1 n2 B VDD VDD g45p1svt M=1 L=45n W=215n 
Mmp3 n0 B net112 VDD g45p1svt M=1 L=45n W=390n 
Mmp5 Y n0 VDD VDD g45p1svt M=1 L=45n W=1.56u 
.ENDS

.SUBCKT XNOR2X2 A B VDD VSS Y 
Mmn1 n2 B VSS VSS g45n1svt M=1 L=45n W=145n 
Mmn2 net145 n1 VSS VSS g45n1svt M=1 L=45n W=145n 
Mmn3 n0 n2 net145 VSS g45n1svt M=1 L=45n W=145n 
Mmn5 Y n0 VSS VSS g45n1svt M=1 L=45n W=520n 
Mmn0 n1 A VSS VSS g45n1svt M=1 L=45n W=145n 
Mmn4 n0 B n1 VSS g45n1svt M=1 L=45n W=145n 
Mmp0 n1 A VDD VDD g45p1svt M=1 L=45n W=215n 
Mmp4 n1 n2 n0 VDD g45p1svt M=1 L=45n W=215n 
Mmp2 net112 n1 VDD VDD g45p1svt M=1 L=45n W=215n 
Mmp1 n2 B VDD VDD g45p1svt M=1 L=45n W=215n 
Mmp3 n0 B net112 VDD g45p1svt M=1 L=45n W=215n 
Mmp5 Y n0 VDD VDD g45p1svt M=1 L=45n W=780n 
.ENDS

.SUBCKT XNOR2X1 A B VDD VSS Y 
Mmn1 n2 B VSS VSS g45n1svt M=1 L=45n W=145n 
Mmn2 net145 n1 VSS VSS g45n1svt M=1 L=45n W=145n 
Mmn3 n0 n2 net145 VSS g45n1svt M=1 L=45n W=145n 
Mmn5 Y n0 VSS VSS g45n1svt M=1 L=45n W=260n 
Mmn0 n1 A VSS VSS g45n1svt M=1 L=45n W=145n 
Mmn4 n0 B n1 VSS g45n1svt M=1 L=45n W=145n 
Mmp0 n1 A VDD VDD g45p1svt M=1 L=45n W=215n 
Mmp4 n1 n2 n0 VDD g45p1svt M=1 L=45n W=215n 
Mmp2 net112 n1 VDD VDD g45p1svt M=1 L=45n W=215n 
Mmp1 n2 B VDD VDD g45p1svt M=1 L=45n W=215n 
Mmp3 n0 B net112 VDD g45p1svt M=1 L=45n W=215n 
Mmp5 Y n0 VDD VDD g45p1svt M=1 L=45n W=390n 
.ENDS

.SUBCKT TLATXL D G Q QN VDD VSS 
Mmn5 net257 D VSS VSS g45n1svt M=1 L=45n W=145n 
Mmn6 n0 Gbb net257 VSS g45n1svt M=1 L=45n W=145n 
Mmn16 n0 Gb net245 VSS g45n1svt M=1 L=45n W=145n 
Mmn15 net245 Qint VSS VSS g45n1svt M=1 L=45n W=145n 
Mmn22 QN Qint VSS VSS g45n1svt M=1 L=45n W=145n 
Mmn21 Q Qbint VSS VSS g45n1svt M=1 L=45n W=145n 
Mmn0 Gb G VSS VSS g45n1svt M=1 L=45n W=145n 
Mmn10 Qint n0 VSS VSS g45n1svt M=1 L=45n W=145n 
Mmn20 Qbint Qint VSS VSS g45n1svt M=1 L=45n W=145n 
Mmn1 Gbb Gb VSS VSS g45n1svt M=1 L=45n W=145n 
Mmp6 n0 Gb net220 VDD g45p1svt M=1 L=45n W=215n 
Mmp5 net220 D VDD VDD g45p1svt M=1 L=45n W=215n 
Mmp16 n0 Gbb net212 VDD g45p1svt M=1 L=45n W=215n 
Mmp15 net212 Qint VDD VDD g45p1svt M=1 L=45n W=215n 
Mmp22 QN Qint VDD VDD g45p1svt M=1 L=45n W=215n 
Mmp21 Q Qbint VDD VDD g45p1svt M=1 L=45n W=215n 
Mmp0 Gb G VDD VDD g45p1svt M=1 L=45n W=215n 
Mmp1 Gbb Gb VDD VDD g45p1svt M=1 L=45n W=215n 
Mmp10 Qint n0 VDD VDD g45p1svt M=1 L=45n W=215n 
Mmp20 Qbint Qint VDD VDD g45p1svt M=1 L=45n W=215n 
.ENDS

.SUBCKT TLATX4 D G Q QN VDD VSS 
Mmn5 net257 D VSS VSS g45n1svt M=1 L=45n W=145n 
Mmn6 n0 Gbb net257 VSS g45n1svt M=1 L=45n W=145n 
Mmn16 n0 Gb net245 VSS g45n1svt M=1 L=45n W=145n 
Mmn15 net245 Qint VSS VSS g45n1svt M=1 L=45n W=145n 
Mmn22 QN Qint VSS VSS g45n1svt M=1 L=45n W=1.04u 
Mmn21 Q Qbint VSS VSS g45n1svt M=1 L=45n W=1.04u 
Mmn0 Gb G VSS VSS g45n1svt M=1 L=45n W=145n 
Mmn10 Qint n0 VSS VSS g45n1svt M=1 L=45n W=410n 
Mmn20 Qbint Qint VSS VSS g45n1svt M=1 L=45n W=1.04u 
Mmn1 Gbb Gb VSS VSS g45n1svt M=1 L=45n W=145n 
Mmp6 n0 Gb net220 VDD g45p1svt M=1 L=45n W=215n 
Mmp5 net220 D VDD VDD g45p1svt M=1 L=45n W=215n 
Mmp16 n0 Gbb net212 VDD g45p1svt M=1 L=45n W=215n 
Mmp15 net212 Qint VDD VDD g45p1svt M=1 L=45n W=215n 
Mmp22 QN Qint VDD VDD g45p1svt M=1 L=45n W=1.56u 
Mmp21 Q Qbint VDD VDD g45p1svt M=1 L=45n W=1.56u 
Mmp0 Gb G VDD VDD g45p1svt M=1 L=45n W=215n 
Mmp1 Gbb Gb VDD VDD g45p1svt M=1 L=45n W=215n 
Mmp10 Qint n0 VDD VDD g45p1svt M=1 L=45n W=620n 
Mmp20 Qbint Qint VDD VDD g45p1svt M=1 L=45n W=1.56u 
.ENDS

.SUBCKT TLATX2 D G Q QN VDD VSS 
Mmn5 net257 D VSS VSS g45n1svt M=1 L=45n W=145n 
Mmn6 n0 Gbb net257 VSS g45n1svt M=1 L=45n W=145n 
Mmn16 n0 Gb net245 VSS g45n1svt M=1 L=45n W=145n 
Mmn15 net245 Qint VSS VSS g45n1svt M=1 L=45n W=145n 
Mmn22 QN Qint VSS VSS g45n1svt M=1 L=45n W=520n 
Mmn21 Q Qbint VSS VSS g45n1svt M=1 L=45n W=520n 
Mmn0 Gb G VSS VSS g45n1svt M=1 L=45n W=145n 
Mmn10 Qint n0 VSS VSS g45n1svt M=1 L=45n W=205n 
Mmn20 Qbint Qint VSS VSS g45n1svt M=1 L=45n W=520n 
Mmn1 Gbb Gb VSS VSS g45n1svt M=1 L=45n W=145n 
Mmp6 n0 Gb net220 VDD g45p1svt M=1 L=45n W=215n 
Mmp5 net220 D VDD VDD g45p1svt M=1 L=45n W=215n 
Mmp16 n0 Gbb net212 VDD g45p1svt M=1 L=45n W=215n 
Mmp15 net212 Qint VDD VDD g45p1svt M=1 L=45n W=215n 
Mmp22 QN Qint VDD VDD g45p1svt M=1 L=45n W=780n 
Mmp21 Q Qbint VDD VDD g45p1svt M=1 L=45n W=780n 
Mmp0 Gb G VDD VDD g45p1svt M=1 L=45n W=215n 
Mmp1 Gbb Gb VDD VDD g45p1svt M=1 L=45n W=215n 
Mmp10 Qint n0 VDD VDD g45p1svt M=1 L=45n W=310n 
Mmp20 Qbint Qint VDD VDD g45p1svt M=1 L=45n W=780n 
.ENDS

.SUBCKT TLATX1 D G Q QN VDD VSS 
Mmn5 net257 D VSS VSS g45n1svt M=1 L=45n W=145n 
Mmn6 n0 Gbb net257 VSS g45n1svt M=1 L=45n W=145n 
Mmn16 n0 Gb net245 VSS g45n1svt M=1 L=45n W=145n 
Mmn15 net245 Qint VSS VSS g45n1svt M=1 L=45n W=145n 
Mmn22 QN Qint VSS VSS g45n1svt M=1 L=45n W=260n 
Mmn21 Q Qbint VSS VSS g45n1svt M=1 L=45n W=260n 
Mmn0 Gb G VSS VSS g45n1svt M=1 L=45n W=145n 
Mmn10 Qint n0 VSS VSS g45n1svt M=1 L=45n W=145n 
Mmn20 Qbint Qint VSS VSS g45n1svt M=1 L=45n W=260n 
Mmn1 Gbb Gb VSS VSS g45n1svt M=1 L=45n W=145n 
Mmp6 n0 Gb net220 VDD g45p1svt M=1 L=45n W=215n 
Mmp5 net220 D VDD VDD g45p1svt M=1 L=45n W=215n 
Mmp16 n0 Gbb net212 VDD g45p1svt M=1 L=45n W=215n 
Mmp15 net212 Qint VDD VDD g45p1svt M=1 L=45n W=215n 
Mmp22 QN Qint VDD VDD g45p1svt M=1 L=45n W=390n 
Mmp21 Q Qbint VDD VDD g45p1svt M=1 L=45n W=390n 
Mmp0 Gb G VDD VDD g45p1svt M=1 L=45n W=215n 
Mmp1 Gbb Gb VDD VDD g45p1svt M=1 L=45n W=215n 
Mmp10 Qint n0 VDD VDD g45p1svt M=1 L=45n W=215n 
Mmp20 Qbint Qint VDD VDD g45p1svt M=1 L=45n W=390n 
.ENDS

.SUBCKT TLATSRXL D G Q QN RN SN VDD VSS 
Mmn5 net191 D VSS VSS g45n1svt M=1 L=45n W=145n 
Mmn6 n5 Gbb net191 VSS g45n1svt M=1 L=45n W=145n 
Mmn10 net183 SN VSS VSS g45n1svt M=1 L=45n W=145n 
Mmn11 Qint n5 net183 VSS g45n1svt M=1 L=45n W=145n 
Mmn17 n5 Gb net171 VSS g45n1svt M=1 L=45n W=145n 
Mmn16 net171 Qint net167 VSS g45n1svt M=1 L=45n W=145n 
Mmn15 net167 RN VSS VSS g45n1svt M=1 L=45n W=145n 
Mmn1 Gb G net159 VSS g45n1svt M=1 L=45n W=145n 
Mmn0 net159 RN VSS VSS g45n1svt M=1 L=45n W=145n 
Mmn22 QN Qint VSS VSS g45n1svt M=1 L=45n W=145n 
Mmn21 Q Qbint VSS VSS g45n1svt M=1 L=45n W=145n 
Mmn2 Gbb Gb VSS VSS g45n1svt M=1 L=45n W=145n 
Mmn20 Qbint Qint VSS VSS g45n1svt M=1 L=45n W=145n 
Mmp6 n5 Gb net142 VDD g45p1svt M=1 L=45n W=215n 
Mmp5 net142 D VDD VDD g45p1svt M=1 L=45n W=215n 
Mmp10 Qint SN VDD VDD g45p1svt M=1 L=45n W=215n 
Mmp1 Gb G VDD VDD g45p1svt M=1 L=45n W=215n 
Mmp22 QN Qint VDD VDD g45p1svt M=1 L=45n W=215n 
Mmp21 Q Qbint VDD VDD g45p1svt M=1 L=45n W=215n 
Mmp2 Gbb Gb VDD VDD g45p1svt M=1 L=45n W=215n 
Mmp17 n5 Gbb net103 VDD g45p1svt M=1 L=45n W=215n 
Mmp16 net103 Qint VDD VDD g45p1svt M=1 L=45n W=215n 
Mmp15 net103 RN VDD VDD g45p1svt M=1 L=45n W=215n 
Mmp0 Gb RN VDD VDD g45p1svt M=1 L=45n W=215n 
Mmp20 Qbint Qint VDD VDD g45p1svt M=1 L=45n W=215n 
Mmp11 Qint n5 VDD VDD g45p1svt M=1 L=45n W=215n 
.ENDS

.SUBCKT TLATSRX4 D G Q QN RN SN VDD VSS 
Mmn5 net191 D VSS VSS g45n1svt M=1 L=45n W=145n 
Mmn6 n5 Gbb net191 VSS g45n1svt M=1 L=45n W=145n 
Mmn10 net183 SN VSS VSS g45n1svt M=1 L=45n W=410n 
Mmn11 Qint n5 net183 VSS g45n1svt M=1 L=45n W=410n 
Mmn17 n5 Gb net171 VSS g45n1svt M=1 L=45n W=145n 
Mmn16 net171 Qint net167 VSS g45n1svt M=1 L=45n W=145n 
Mmn15 net167 RN VSS VSS g45n1svt M=1 L=45n W=145n 
Mmn1 Gb G net159 VSS g45n1svt M=1 L=45n W=145n 
Mmn0 net159 RN VSS VSS g45n1svt M=1 L=45n W=145n 
Mmn22 QN Qint VSS VSS g45n1svt M=1 L=45n W=1.04u 
Mmn21 Q Qbint VSS VSS g45n1svt M=1 L=45n W=1.04u 
Mmn2 Gbb Gb VSS VSS g45n1svt M=1 L=45n W=145n 
Mmn20 Qbint Qint VSS VSS g45n1svt M=1 L=45n W=1.04u 
Mmp6 n5 Gb net142 VDD g45p1svt M=1 L=45n W=215n 
Mmp5 net142 D VDD VDD g45p1svt M=1 L=45n W=215n 
Mmp10 Qint SN VDD VDD g45p1svt M=1 L=45n W=620n 
Mmp1 Gb G VDD VDD g45p1svt M=1 L=45n W=215n 
Mmp22 QN Qint VDD VDD g45p1svt M=1 L=45n W=1.56u 
Mmp21 Q Qbint VDD VDD g45p1svt M=1 L=45n W=1.56u 
Mmp2 Gbb Gb VDD VDD g45p1svt M=1 L=45n W=215n 
Mmp17 n5 Gbb net103 VDD g45p1svt M=1 L=45n W=215n 
Mmp16 net103 Qint VDD VDD g45p1svt M=1 L=45n W=215n 
Mmp15 net103 RN VDD VDD g45p1svt M=1 L=45n W=215n 
Mmp0 Gb RN VDD VDD g45p1svt M=1 L=45n W=215n 
Mmp20 Qbint Qint VDD VDD g45p1svt M=1 L=45n W=1.56u 
Mmp11 Qint n5 VDD VDD g45p1svt M=1 L=45n W=620n 
.ENDS

.SUBCKT TLATSRX2 D G Q QN RN SN VDD VSS 
Mmn5 net191 D VSS VSS g45n1svt M=1 L=45n W=145n 
Mmn6 n5 Gbb net191 VSS g45n1svt M=1 L=45n W=145n 
Mmn10 net183 SN VSS VSS g45n1svt M=1 L=45n W=205n 
Mmn11 Qint n5 net183 VSS g45n1svt M=1 L=45n W=205n 
Mmn17 n5 Gb net171 VSS g45n1svt M=1 L=45n W=145n 
Mmn16 net171 Qint net167 VSS g45n1svt M=1 L=45n W=145n 
Mmn15 net167 RN VSS VSS g45n1svt M=1 L=45n W=145n 
Mmn1 Gb G net159 VSS g45n1svt M=1 L=45n W=145n 
Mmn0 net159 RN VSS VSS g45n1svt M=1 L=45n W=145n 
Mmn22 QN Qint VSS VSS g45n1svt M=1 L=45n W=520n 
Mmn21 Q Qbint VSS VSS g45n1svt M=1 L=45n W=520n 
Mmn2 Gbb Gb VSS VSS g45n1svt M=1 L=45n W=145n 
Mmn20 Qbint Qint VSS VSS g45n1svt M=1 L=45n W=520n 
Mmp6 n5 Gb net142 VDD g45p1svt M=1 L=45n W=215n 
Mmp5 net142 D VDD VDD g45p1svt M=1 L=45n W=215n 
Mmp10 Qint SN VDD VDD g45p1svt M=1 L=45n W=310n 
Mmp1 Gb G VDD VDD g45p1svt M=1 L=45n W=215n 
Mmp22 QN Qint VDD VDD g45p1svt M=1 L=45n W=780n 
Mmp21 Q Qbint VDD VDD g45p1svt M=1 L=45n W=780n 
Mmp2 Gbb Gb VDD VDD g45p1svt M=1 L=45n W=215n 
Mmp17 n5 Gbb net103 VDD g45p1svt M=1 L=45n W=215n 
Mmp16 net103 Qint VDD VDD g45p1svt M=1 L=45n W=215n 
Mmp15 net103 RN VDD VDD g45p1svt M=1 L=45n W=215n 
Mmp0 Gb RN VDD VDD g45p1svt M=1 L=45n W=215n 
Mmp20 Qbint Qint VDD VDD g45p1svt M=1 L=45n W=780n 
Mmp11 Qint n5 VDD VDD g45p1svt M=1 L=45n W=310n 
.ENDS

.SUBCKT TLATSRX1 D G Q QN RN SN VDD VSS 
Mmn5 net191 D VSS VSS g45n1svt M=1 L=45n W=145n 
Mmn6 n5 Gbb net191 VSS g45n1svt M=1 L=45n W=145n 
Mmn10 net183 SN VSS VSS g45n1svt M=1 L=45n W=145n 
Mmn11 Qint n5 net183 VSS g45n1svt M=1 L=45n W=145n 
Mmn17 n5 Gb net171 VSS g45n1svt M=1 L=45n W=145n 
Mmn16 net171 Qint net167 VSS g45n1svt M=1 L=45n W=145n 
Mmn15 net167 RN VSS VSS g45n1svt M=1 L=45n W=145n 
Mmn1 Gb G net159 VSS g45n1svt M=1 L=45n W=145n 
Mmn0 net159 RN VSS VSS g45n1svt M=1 L=45n W=145n 
Mmn22 QN Qint VSS VSS g45n1svt M=1 L=45n W=260n 
Mmn21 Q Qbint VSS VSS g45n1svt M=1 L=45n W=260n 
Mmn2 Gbb Gb VSS VSS g45n1svt M=1 L=45n W=145n 
Mmn20 Qbint Qint VSS VSS g45n1svt M=1 L=45n W=260n 
Mmp6 n5 Gb net142 VDD g45p1svt M=1 L=45n W=215n 
Mmp5 net142 D VDD VDD g45p1svt M=1 L=45n W=215n 
Mmp10 Qint SN VDD VDD g45p1svt M=1 L=45n W=215n 
Mmp1 Gb G VDD VDD g45p1svt M=1 L=45n W=215n 
Mmp22 QN Qint VDD VDD g45p1svt M=1 L=45n W=390n 
Mmp21 Q Qbint VDD VDD g45p1svt M=1 L=45n W=390n 
Mmp2 Gbb Gb VDD VDD g45p1svt M=1 L=45n W=215n 
Mmp17 n5 Gbb net103 VDD g45p1svt M=1 L=45n W=215n 
Mmp16 net103 Qint VDD VDD g45p1svt M=1 L=45n W=215n 
Mmp15 net103 RN VDD VDD g45p1svt M=1 L=45n W=215n 
Mmp0 Gb RN VDD VDD g45p1svt M=1 L=45n W=215n 
Mmp20 Qbint Qint VDD VDD g45p1svt M=1 L=45n W=390n 
Mmp11 Qint n5 VDD VDD g45p1svt M=1 L=45n W=215n 
.ENDS

.SUBCKT TLATNXL D GN Q QN VDD VSS 
Mmn5 net257 D VSS VSS g45n1svt M=1 L=45n W=145n 
Mmn6 n0 GNb net257 VSS g45n1svt M=1 L=45n W=145n 
Mmn16 n0 GNbb net245 VSS g45n1svt M=1 L=45n W=145n 
Mmn15 net245 Qint VSS VSS g45n1svt M=1 L=45n W=145n 
Mmn22 QN Qint VSS VSS g45n1svt M=1 L=45n W=145n 
Mmn21 Q Qbint VSS VSS g45n1svt M=1 L=45n W=145n 
Mmn0 GNb GN VSS VSS g45n1svt M=1 L=45n W=145n 
Mmn1 GNbb GNb VSS VSS g45n1svt M=1 L=45n W=145n 
Mmn10 Qint n0 VSS VSS g45n1svt M=1 L=45n W=145n 
Mmn20 Qbint Qint VSS VSS g45n1svt M=1 L=45n W=145n 
Mmp6 n0 GNbb net220 VDD g45p1svt M=1 L=45n W=215n 
Mmp5 net220 D VDD VDD g45p1svt M=1 L=45n W=215n 
Mmp16 n0 GNb net212 VDD g45p1svt M=1 L=45n W=215n 
Mmp15 net212 Qint VDD VDD g45p1svt M=1 L=45n W=215n 
Mmp22 QN Qint VDD VDD g45p1svt M=1 L=45n W=215n 
Mmp21 Q Qbint VDD VDD g45p1svt M=1 L=45n W=215n 
Mmp0 GNb GN VDD VDD g45p1svt M=1 L=45n W=215n 
Mmp1 GNbb GNb VDD VDD g45p1svt M=1 L=45n W=215n 
Mmp10 Qint n0 VDD VDD g45p1svt M=1 L=45n W=215n 
Mmp20 Qbint Qint VDD VDD g45p1svt M=1 L=45n W=215n 
.ENDS

.SUBCKT TLATNX4 D GN Q QN VDD VSS 
Mmn5 net257 D VSS VSS g45n1svt M=1 L=45n W=145n 
Mmn6 n0 GNb net257 VSS g45n1svt M=1 L=45n W=145n 
Mmn16 n0 GNbb net245 VSS g45n1svt M=1 L=45n W=145n 
Mmn15 net245 Qint VSS VSS g45n1svt M=1 L=45n W=145n 
Mmn22 QN Qint VSS VSS g45n1svt M=1 L=45n W=1.04u 
Mmn21 Q Qbint VSS VSS g45n1svt M=1 L=45n W=1.04u 
Mmn0 GNb GN VSS VSS g45n1svt M=1 L=45n W=145n 
Mmn1 GNbb GNb VSS VSS g45n1svt M=1 L=45n W=145n 
Mmn10 Qint n0 VSS VSS g45n1svt M=1 L=45n W=410n 
Mmn20 Qbint Qint VSS VSS g45n1svt M=1 L=45n W=1.04u 
Mmp6 n0 GNbb net220 VDD g45p1svt M=1 L=45n W=215n 
Mmp5 net220 D VDD VDD g45p1svt M=1 L=45n W=215n 
Mmp16 n0 GNb net212 VDD g45p1svt M=1 L=45n W=215n 
Mmp15 net212 Qint VDD VDD g45p1svt M=1 L=45n W=215n 
Mmp22 QN Qint VDD VDD g45p1svt M=1 L=45n W=1.56u 
Mmp21 Q Qbint VDD VDD g45p1svt M=1 L=45n W=1.56u 
Mmp0 GNb GN VDD VDD g45p1svt M=1 L=45n W=215n 
Mmp1 GNbb GNb VDD VDD g45p1svt M=1 L=45n W=215n 
Mmp10 Qint n0 VDD VDD g45p1svt M=1 L=45n W=620n 
Mmp20 Qbint Qint VDD VDD g45p1svt M=1 L=45n W=1.56u 
.ENDS

.SUBCKT TLATNX2 D GN Q QN VDD VSS 
Mmn5 net257 D VSS VSS g45n1svt M=1 L=45n W=145n 
Mmn6 n0 GNb net257 VSS g45n1svt M=1 L=45n W=145n 
Mmn16 n0 GNbb net245 VSS g45n1svt M=1 L=45n W=145n 
Mmn15 net245 Qint VSS VSS g45n1svt M=1 L=45n W=145n 
Mmn22 QN Qint VSS VSS g45n1svt M=1 L=45n W=520n 
Mmn21 Q Qbint VSS VSS g45n1svt M=1 L=45n W=520n 
Mmn0 GNb GN VSS VSS g45n1svt M=1 L=45n W=145n 
Mmn1 GNbb GNb VSS VSS g45n1svt M=1 L=45n W=145n 
Mmn10 Qint n0 VSS VSS g45n1svt M=1 L=45n W=205n 
Mmn20 Qbint Qint VSS VSS g45n1svt M=1 L=45n W=520n 
Mmp6 n0 GNbb net220 VDD g45p1svt M=1 L=45n W=215n 
Mmp5 net220 D VDD VDD g45p1svt M=1 L=45n W=215n 
Mmp16 n0 GNb net212 VDD g45p1svt M=1 L=45n W=215n 
Mmp15 net212 Qint VDD VDD g45p1svt M=1 L=45n W=215n 
Mmp22 QN Qint VDD VDD g45p1svt M=1 L=45n W=780n 
Mmp21 Q Qbint VDD VDD g45p1svt M=1 L=45n W=780n 
Mmp0 GNb GN VDD VDD g45p1svt M=1 L=45n W=215n 
Mmp1 GNbb GNb VDD VDD g45p1svt M=1 L=45n W=215n 
Mmp10 Qint n0 VDD VDD g45p1svt M=1 L=45n W=310n 
Mmp20 Qbint Qint VDD VDD g45p1svt M=1 L=45n W=780n 
.ENDS

.SUBCKT TLATNX1 D GN Q QN VDD VSS 
Mmn5 net257 D VSS VSS g45n1svt M=1 L=45n W=145n 
Mmn6 n0 GNb net257 VSS g45n1svt M=1 L=45n W=145n 
Mmn16 n0 GNbb net245 VSS g45n1svt M=1 L=45n W=145n 
Mmn15 net245 Qint VSS VSS g45n1svt M=1 L=45n W=145n 
Mmn22 QN Qint VSS VSS g45n1svt M=1 L=45n W=260n 
Mmn21 Q Qbint VSS VSS g45n1svt M=1 L=45n W=260n 
Mmn0 GNb GN VSS VSS g45n1svt M=1 L=45n W=145n 
Mmn1 GNbb GNb VSS VSS g45n1svt M=1 L=45n W=145n 
Mmn10 Qint n0 VSS VSS g45n1svt M=1 L=45n W=145n 
Mmn20 Qbint Qint VSS VSS g45n1svt M=1 L=45n W=260n 
Mmp6 n0 GNbb net220 VDD g45p1svt M=1 L=45n W=215n 
Mmp5 net220 D VDD VDD g45p1svt M=1 L=45n W=215n 
Mmp16 n0 GNb net212 VDD g45p1svt M=1 L=45n W=215n 
Mmp15 net212 Qint VDD VDD g45p1svt M=1 L=45n W=215n 
Mmp22 QN Qint VDD VDD g45p1svt M=1 L=45n W=390n 
Mmp21 Q Qbint VDD VDD g45p1svt M=1 L=45n W=390n 
Mmp0 GNb GN VDD VDD g45p1svt M=1 L=45n W=215n 
Mmp1 GNbb GNb VDD VDD g45p1svt M=1 L=45n W=215n 
Mmp10 Qint n0 VDD VDD g45p1svt M=1 L=45n W=215n 
Mmp20 Qbint Qint VDD VDD g45p1svt M=1 L=45n W=390n 
.ENDS

.SUBCKT TLATNTSCAX8 CK E ECK SE VDD VSS 
Mmn1 Eb E VSS VSS g45n1svt M=1 L=45n W=145n 
Mmn0 Eb SE VSS VSS g45n1svt M=1 L=45n W=145n 
Mmn22 ECK ECKb VSS VSS g45n1svt M=1 L=45n W=2.065u 
Mmn21 ECKb CKbb net271 VSS g45n1svt M=1 L=45n W=520n 
Mmn20 net271 Eint VSS VSS g45n1svt M=1 L=45n W=520n 
Mmn16 n5 CKbb net263 VSS g45n1svt M=1 L=45n W=145n 
Mmn15 net263 Eint VSS VSS g45n1svt M=1 L=45n W=145n 
Mmn2 CKb CK VSS VSS g45n1svt M=1 L=45n W=145n 
Mmn10 Eint n5 VSS VSS g45n1svt M=1 L=45n W=205n 
Mmn5 Eb CKb n5 VSS g45n1svt M=1 L=45n W=145n 
Mmn3 CKbb CKb VSS VSS g45n1svt M=1 L=45n W=145n 
Mmp1 Eb E net246 VDD g45p1svt M=1 L=45n W=215n 
Mmp0 net246 SE VDD VDD g45p1svt M=1 L=45n W=215n 
Mmp22 ECK ECKb VDD VDD g45p1svt M=1 L=45n W=3.115u 
Mmp16 n5 CKb net234 VDD g45p1svt M=1 L=45n W=215n 
Mmp15 net234 Eint VDD VDD g45p1svt M=1 L=45n W=215n 
Mmp2 CKb CK VDD VDD g45p1svt M=1 L=45n W=215n 
Mmp10 Eint n5 VDD VDD g45p1svt M=1 L=45n W=310n 
Mmp3 CKbb CKb VDD VDD g45p1svt M=1 L=45n W=215n 
Mmp5 n5 CKbb Eb VDD g45p1svt M=1 L=45n W=215n 
Mmp21 ECKb CKbb VDD VDD g45p1svt M=1 L=45n W=780n 
Mmp20 ECKb Eint VDD VDD g45p1svt M=1 L=45n W=780n 
.ENDS

.SUBCKT TLATNTSCAX6 CK E ECK SE VDD VSS 
Mmn1 Eb E VSS VSS g45n1svt M=1 L=45n W=145n 
Mmn0 Eb SE VSS VSS g45n1svt M=1 L=45n W=145n 
Mmn22 ECK ECKb VSS VSS g45n1svt M=1 L=45n W=1.55u 
Mmn21 ECKb CKbb net271 VSS g45n1svt M=1 L=45n W=520n 
Mmn20 net271 Eint VSS VSS g45n1svt M=1 L=45n W=520n 
Mmn16 n5 CKbb net263 VSS g45n1svt M=1 L=45n W=145n 
Mmn15 net263 Eint VSS VSS g45n1svt M=1 L=45n W=145n 
Mmn2 CKb CK VSS VSS g45n1svt M=1 L=45n W=145n 
Mmn10 Eint n5 VSS VSS g45n1svt M=1 L=45n W=205n 
Mmn5 Eb CKb n5 VSS g45n1svt M=1 L=45n W=145n 
Mmn3 CKbb CKb VSS VSS g45n1svt M=1 L=45n W=145n 
Mmp1 Eb E net246 VDD g45p1svt M=1 L=45n W=215n 
Mmp0 net246 SE VDD VDD g45p1svt M=1 L=45n W=215n 
Mmp22 ECK ECKb VDD VDD g45p1svt M=1 L=45n W=2.35u 
Mmp16 n5 CKb net234 VDD g45p1svt M=1 L=45n W=215n 
Mmp15 net234 Eint VDD VDD g45p1svt M=1 L=45n W=215n 
Mmp2 CKb CK VDD VDD g45p1svt M=1 L=45n W=215n 
Mmp10 Eint n5 VDD VDD g45p1svt M=1 L=45n W=310n 
Mmp3 CKbb CKb VDD VDD g45p1svt M=1 L=45n W=215n 
Mmp5 n5 CKbb Eb VDD g45p1svt M=1 L=45n W=215n 
Mmp21 ECKb CKbb VDD VDD g45p1svt M=1 L=45n W=780n 
Mmp20 ECKb Eint VDD VDD g45p1svt M=1 L=45n W=780n 
.ENDS

.SUBCKT TLATNTSCAX4 CK E ECK SE VDD VSS 
Mmn1 Eb E VSS VSS g45n1svt M=1 L=45n W=145n 
Mmn0 Eb SE VSS VSS g45n1svt M=1 L=45n W=145n 
Mmn22 ECK ECKb VSS VSS g45n1svt M=1 L=45n W=1.04u 
Mmn21 ECKb CKbb net271 VSS g45n1svt M=1 L=45n W=260n 
Mmn20 net271 Eint VSS VSS g45n1svt M=1 L=45n W=260n 
Mmn16 n5 CKbb net263 VSS g45n1svt M=1 L=45n W=145n 
Mmn15 net263 Eint VSS VSS g45n1svt M=1 L=45n W=145n 
Mmn2 CKb CK VSS VSS g45n1svt M=1 L=45n W=145n 
Mmn10 Eint n5 VSS VSS g45n1svt M=1 L=45n W=145n 
Mmn5 Eb CKb n5 VSS g45n1svt M=1 L=45n W=145n 
Mmn3 CKbb CKb VSS VSS g45n1svt M=1 L=45n W=145n 
Mmp1 Eb E net246 VDD g45p1svt M=1 L=45n W=215n 
Mmp0 net246 SE VDD VDD g45p1svt M=1 L=45n W=215n 
Mmp22 ECK ECKb VDD VDD g45p1svt M=1 L=45n W=1.56u 
Mmp16 n5 CKb net234 VDD g45p1svt M=1 L=45n W=215n 
Mmp15 net234 Eint VDD VDD g45p1svt M=1 L=45n W=215n 
Mmp2 CKb CK VDD VDD g45p1svt M=1 L=45n W=215n 
Mmp10 Eint n5 VDD VDD g45p1svt M=1 L=45n W=215n 
Mmp3 CKbb CKb VDD VDD g45p1svt M=1 L=45n W=215n 
Mmp5 n5 CKbb Eb VDD g45p1svt M=1 L=45n W=215n 
Mmp21 ECKb CKbb VDD VDD g45p1svt M=1 L=45n W=390n 
Mmp20 ECKb Eint VDD VDD g45p1svt M=1 L=45n W=390n 
.ENDS

.SUBCKT TLATNTSCAX3 CK E ECK SE VDD VSS 
Mmn1 Eb E VSS VSS g45n1svt M=1 L=45n W=145n 
Mmn0 Eb SE VSS VSS g45n1svt M=1 L=45n W=145n 
Mmn22 ECK ECKb VSS VSS g45n1svt M=1 L=45n W=780n 
Mmn21 ECKb CKbb net271 VSS g45n1svt M=1 L=45n W=260n 
Mmn20 net271 Eint VSS VSS g45n1svt M=1 L=45n W=260n 
Mmn16 n5 CKbb net263 VSS g45n1svt M=1 L=45n W=145n 
Mmn15 net263 Eint VSS VSS g45n1svt M=1 L=45n W=145n 
Mmn2 CKb CK VSS VSS g45n1svt M=1 L=45n W=145n 
Mmn10 Eint n5 VSS VSS g45n1svt M=1 L=45n W=145n 
Mmn5 Eb CKb n5 VSS g45n1svt M=1 L=45n W=145n 
Mmn3 CKbb CKb VSS VSS g45n1svt M=1 L=45n W=145n 
Mmp1 Eb E net246 VDD g45p1svt M=1 L=45n W=215n 
Mmp0 net246 SE VDD VDD g45p1svt M=1 L=45n W=215n 
Mmp22 ECK ECKb VDD VDD g45p1svt M=1 L=45n W=1.17u 
Mmp16 n5 CKb net234 VDD g45p1svt M=1 L=45n W=215n 
Mmp15 net234 Eint VDD VDD g45p1svt M=1 L=45n W=215n 
Mmp2 CKb CK VDD VDD g45p1svt M=1 L=45n W=215n 
Mmp10 Eint n5 VDD VDD g45p1svt M=1 L=45n W=215n 
Mmp3 CKbb CKb VDD VDD g45p1svt M=1 L=45n W=215n 
Mmp5 n5 CKbb Eb VDD g45p1svt M=1 L=45n W=215n 
Mmp21 ECKb CKbb VDD VDD g45p1svt M=1 L=45n W=390n 
Mmp20 ECKb Eint VDD VDD g45p1svt M=1 L=45n W=390n 
.ENDS

.SUBCKT TLATNTSCAX2 CK E ECK SE VDD VSS 
Mmn1 Eb E VSS VSS g45n1svt M=1 L=45n W=145n 
Mmn0 Eb SE VSS VSS g45n1svt M=1 L=45n W=145n 
Mmn22 ECK ECKb VSS VSS g45n1svt M=1 L=45n W=520n 
Mmn21 ECKb CKbb net271 VSS g45n1svt M=1 L=45n W=145n 
Mmn20 net271 Eint VSS VSS g45n1svt M=1 L=45n W=145n 
Mmn16 n5 CKbb net263 VSS g45n1svt M=1 L=45n W=145n 
Mmn15 net263 Eint VSS VSS g45n1svt M=1 L=45n W=145n 
Mmn2 CKb CK VSS VSS g45n1svt M=1 L=45n W=145n 
Mmn10 Eint n5 VSS VSS g45n1svt M=1 L=45n W=145n 
Mmn5 Eb CKb n5 VSS g45n1svt M=1 L=45n W=145n 
Mmn3 CKbb CKb VSS VSS g45n1svt M=1 L=45n W=145n 
Mmp1 Eb E net246 VDD g45p1svt M=1 L=45n W=215n 
Mmp0 net246 SE VDD VDD g45p1svt M=1 L=45n W=215n 
Mmp22 ECK ECKb VDD VDD g45p1svt M=1 L=45n W=780n 
Mmp16 n5 CKb net234 VDD g45p1svt M=1 L=45n W=215n 
Mmp15 net234 Eint VDD VDD g45p1svt M=1 L=45n W=215n 
Mmp2 CKb CK VDD VDD g45p1svt M=1 L=45n W=215n 
Mmp10 Eint n5 VDD VDD g45p1svt M=1 L=45n W=215n 
Mmp3 CKbb CKb VDD VDD g45p1svt M=1 L=45n W=215n 
Mmp5 n5 CKbb Eb VDD g45p1svt M=1 L=45n W=215n 
Mmp21 ECKb CKbb VDD VDD g45p1svt M=1 L=45n W=215n 
Mmp20 ECKb Eint VDD VDD g45p1svt M=1 L=45n W=215n 
.ENDS

.SUBCKT TLATNTSCAX20 CK E ECK SE VDD VSS 
Mmn1 Eb E VSS VSS g45n1svt M=1 L=45n W=145n 
Mmn0 Eb SE VSS VSS g45n1svt M=1 L=45n W=145n 
Mmn22 ECK ECKb VSS VSS g45n1svt M=1 L=45n W=5.185u 
Mmn21 ECKb CKbb net271 VSS g45n1svt M=1 L=45n W=1.3u 
Mmn20 net271 Eint VSS VSS g45n1svt M=1 L=45n W=1.3u 
Mmn16 n5 CKbb net263 VSS g45n1svt M=1 L=45n W=145n 
Mmn15 net263 Eint VSS VSS g45n1svt M=1 L=45n W=145n 
Mmn2 CKb CK VSS VSS g45n1svt M=1 L=45n W=145n 
Mmn10 Eint n5 VSS VSS g45n1svt M=1 L=45n W=520n 
Mmn5 Eb CKb n5 VSS g45n1svt M=1 L=45n W=145n 
Mmn3 CKbb CKb VSS VSS g45n1svt M=1 L=45n W=145n 
Mmp1 Eb E net246 VDD g45p1svt M=1 L=45n W=215n 
Mmp0 net246 SE VDD VDD g45p1svt M=1 L=45n W=215n 
Mmp22 ECK ECKb VDD VDD g45p1svt M=1 L=45n W=7.815u 
Mmp16 n5 CKb net234 VDD g45p1svt M=1 L=45n W=215n 
Mmp15 net234 Eint VDD VDD g45p1svt M=1 L=45n W=215n 
Mmp2 CKb CK VDD VDD g45p1svt M=1 L=45n W=215n 
Mmp10 Eint n5 VDD VDD g45p1svt M=1 L=45n W=780n 
Mmp3 CKbb CKb VDD VDD g45p1svt M=1 L=45n W=215n 
Mmp5 n5 CKbb Eb VDD g45p1svt M=1 L=45n W=215n 
Mmp21 ECKb CKbb VDD VDD g45p1svt M=1 L=45n W=1.95u 
Mmp20 ECKb Eint VDD VDD g45p1svt M=1 L=45n W=1.95u 
.ENDS

.SUBCKT TLATNTSCAX16 CK E ECK SE VDD VSS 
Mmn1 Eb E VSS VSS g45n1svt M=1 L=45n W=145n 
Mmn0 Eb SE VSS VSS g45n1svt M=1 L=45n W=145n 
Mmn22 ECK ECKb VSS VSS g45n1svt M=1 L=45n W=4.13u 
Mmn21 ECKb CKbb net271 VSS g45n1svt M=1 L=45n W=1.04u 
Mmn20 net271 Eint VSS VSS g45n1svt M=1 L=45n W=1.04u 
Mmn16 n5 CKbb net263 VSS g45n1svt M=1 L=45n W=145n 
Mmn15 net263 Eint VSS VSS g45n1svt M=1 L=45n W=145n 
Mmn2 CKb CK VSS VSS g45n1svt M=1 L=45n W=145n 
Mmn10 Eint n5 VSS VSS g45n1svt M=1 L=45n W=410n 
Mmn5 Eb CKb n5 VSS g45n1svt M=1 L=45n W=145n 
Mmn3 CKbb CKb VSS VSS g45n1svt M=1 L=45n W=145n 
Mmp1 Eb E net246 VDD g45p1svt M=1 L=45n W=215n 
Mmp0 net246 SE VDD VDD g45p1svt M=1 L=45n W=215n 
Mmp22 ECK ECKb VDD VDD g45p1svt M=1 L=45n W=6.23u 
Mmp16 n5 CKb net234 VDD g45p1svt M=1 L=45n W=215n 
Mmp15 net234 Eint VDD VDD g45p1svt M=1 L=45n W=215n 