.SUBCKT c6288 N1 N18 N35 N52 N69 N86 N103 N120 N137 N154 N171 N188 N205 N222 N239 N256 N273 N290 N307 N324 N341 N358 N375 N392 N409 N426 N443 N460 N477 N494 N511 N528 N545 N1581 N1901 N2223 N2548 N2877 N3211 N3552 N3895 N4241 N4591 N4946 N5308 N5672 N5971 N6123 N6150 N6160 N6170 N6180 N6190 N6200 N6210 N6220 N6230 N6240 N6250 N6260 N6270 N6280 N6287 N6288 VDD VSS 
M1 N6288 n2200 net1 VSS nmos w=1u l=1u
M2 net1 n2199 VSS VSS nmos w=1u l=1u
M3 N6288 n2200 VDD VDD pmos w=2u l=1u
M4 N6288 n2199 VDD VDD pmos w=2u l=1u
M5 n2200 n2202 net2 VSS nmos w=1u l=1u
M6 net2 n2201 VSS VSS nmos w=1u l=1u
M7 n2200 n2202 VDD VDD pmos w=2u l=1u
M8 n2200 n2201 VDD VDD pmos w=2u l=1u
M9 n2201 net3 VSS VSS nmos w=1u l=1u
M10 net4 n2204 VSS VSS nmos w=1u l=1u
M11 net3 n2203 net4 VSS nmos w=1u l=1u
M12 net3 n2204 VDD VDD pmos w=2u l=1u
M13 net3 n2203 VDD VDD pmos w=2u l=1u
M14 n2201 net3 VDD VDD pmos w=2u l=1u
M15 N6287 n2206 VSS VSS nmos w=1u l=1u
M16 N6287 n2205 VSS VSS nmos w=1u l=1u
M17 N6287 n2206 net5 VDD pmos w=2u l=1u
M18 net5 n2205 VDD VDD pmos w=2u l=1u
M19 n2206 n2199 net6 VSS nmos w=1u l=1u
M20 net6 N256 VSS VSS nmos w=1u l=1u
M21 n2206 n2199 VDD VDD pmos w=2u l=1u
M22 n2206 N256 VDD VDD pmos w=2u l=1u
M23 n2199 n2208 net7 VSS nmos w=1u l=1u
M24 net7 n2207 VSS VSS nmos w=1u l=1u
M25 n2199 n2208 VDD VDD pmos w=2u l=1u
M26 n2199 n2207 VDD VDD pmos w=2u l=1u
M27 n2208 n2203 net8 VSS nmos w=1u l=1u
M28 net8 n2204 VSS VSS nmos w=1u l=1u
M29 n2208 n2203 VDD VDD pmos w=2u l=1u
M30 n2208 n2204 VDD VDD pmos w=2u l=1u
M31 n2207 n2202 VDD VDD pmos w=2u l=1u
M32 n2207 n2202 VSS VSS nmos w=1u l=1u
M33 net9 n2210 VSS VSS nmos w=1u l=1u
M34 net10 n2209 VSS VSS nmos w=1u l=1u
M35 n2202 net11 VSS VSS nmos w=1u l=1u
M36 net11 n2210 net12 VSS nmos w=1u l=1u
M37 net11 net9 net10 VSS nmos w=1u l=1u
M38 net12 net10 VSS VSS nmos w=1u l=1u
M39 net11 net9 net13 VDD pmos w=2u l=1u
M40 net9 n2210 VDD VDD pmos w=2u l=1u
M41 net10 n2210 net11 VDD pmos w=2u l=1u
M42 net10 n2209 VDD VDD pmos w=2u l=1u
M43 n2202 net11 VDD VDD pmos w=2u l=1u
M44 net13 net10 VDD VDD pmos w=2u l=1u
M45 n2210 net14 VSS VSS nmos w=1u l=1u
M46 net15 n2212 VSS VSS nmos w=1u l=1u
M47 net14 n2211 net15 VSS nmos w=1u l=1u
M48 net14 n2212 VDD VDD pmos w=2u l=1u
M49 net14 n2211 VDD VDD pmos w=2u l=1u
M50 n2210 net14 VDD VDD pmos w=2u l=1u
M51 n2209 N256 net16 VSS nmos w=1u l=1u
M52 net16 N528 VSS VSS nmos w=1u l=1u
M53 n2209 N256 VDD VDD pmos w=2u l=1u
M54 n2209 N528 VDD VDD pmos w=2u l=1u
M55 N6280 n2213 net17 VSS nmos w=1u l=1u
M56 net17 n2204 VSS VSS nmos w=1u l=1u
M57 N6280 n2213 VDD VDD pmos w=2u l=1u
M58 N6280 n2204 VDD VDD pmos w=2u l=1u
M59 n2213 n2215 net18 VSS nmos w=1u l=1u
M60 net18 n2214 VSS VSS nmos w=1u l=1u
M61 n2213 n2215 VDD VDD pmos w=2u l=1u
M62 n2213 n2214 VDD VDD pmos w=2u l=1u
M63 n2214 n2217 VSS VSS nmos w=1u l=1u
M64 n2214 n2216 VSS VSS nmos w=1u l=1u
M65 n2214 n2217 net19 VDD pmos w=2u l=1u
M66 net19 n2216 VDD VDD pmos w=2u l=1u
M67 n2216 n2218 VDD VDD pmos w=2u l=1u
M68 n2216 n2218 VSS VSS nmos w=1u l=1u
M69 n2204 n2219 net20 VSS nmos w=1u l=1u
M70 net20 n2217 VSS VSS nmos w=1u l=1u
M71 n2204 n2219 VDD VDD pmos w=2u l=1u
M72 n2204 n2217 VDD VDD pmos w=2u l=1u
M73 n2219 n2218 net21 VSS nmos w=1u l=1u
M74 net21 n2215 VSS VSS nmos w=1u l=1u
M75 n2219 n2218 VDD VDD pmos w=2u l=1u
M76 n2219 n2215 VDD VDD pmos w=2u l=1u
M77 n2217 net22 VSS VSS nmos w=1u l=1u
M78 net23 n2220 VSS VSS nmos w=1u l=1u
M79 net22 n2203 net23 VSS nmos w=1u l=1u
M80 net22 n2220 VDD VDD pmos w=2u l=1u
M81 net22 n2203 VDD VDD pmos w=2u l=1u
M82 n2217 net22 VDD VDD pmos w=2u l=1u
M83 n2220 n2222 net24 VSS nmos w=1u l=1u
M84 net24 n2221 VSS VSS nmos w=1u l=1u
M85 n2220 n2222 VDD VDD pmos w=2u l=1u
M86 n2220 n2221 VDD VDD pmos w=2u l=1u
M87 n2203 net25 VSS VSS nmos w=1u l=1u
M88 net25 n2222 VSS VSS nmos w=1u l=1u
M89 net25 n2221 VSS VSS nmos w=1u l=1u
M90 net25 n2221 net26 VDD pmos w=2u l=1u
M91 n2203 net25 VDD VDD pmos w=2u l=1u
M92 net26 n2222 VDD VDD pmos w=2u l=1u
M93 n2221 net27 VSS VSS nmos w=1u l=1u
M94 net28 n2224 VSS VSS nmos w=1u l=1u
M95 net27 n2223 net28 VSS nmos w=1u l=1u
M96 net27 n2224 VDD VDD pmos w=2u l=1u
M97 net27 n2223 VDD VDD pmos w=2u l=1u
M98 n2221 net27 VDD VDD pmos w=2u l=1u
M99 n2222 n2225 net29 VSS nmos w=1u l=1u
M100 net29 n2212 VSS VSS nmos w=1u l=1u
M101 n2222 n2225 VDD VDD pmos w=2u l=1u
M102 n2222 n2212 VDD VDD pmos w=2u l=1u
M103 n2225 N528 net30 VSS nmos w=1u l=1u
M104 net30 n2226 VSS VSS nmos w=1u l=1u
M105 n2225 N528 VDD VDD pmos w=2u l=1u
M106 n2225 n2226 VDD VDD pmos w=2u l=1u
M107 n2226 n2228 VSS VSS nmos w=1u l=1u
M108 n2226 n2227 VSS VSS nmos w=1u l=1u
M109 n2226 n2228 net31 VDD pmos w=2u l=1u
M110 net31 n2227 VDD VDD pmos w=2u l=1u
M111 n2212 n2229 net32 VSS nmos w=1u l=1u
M112 net32 n2227 VSS VSS nmos w=1u l=1u
M113 n2212 n2229 VDD VDD pmos w=2u l=1u
M114 n2212 n2227 VDD VDD pmos w=2u l=1u
M115 n2229 N239 net33 VSS nmos w=1u l=1u
M116 net33 N528 VSS VSS nmos w=1u l=1u
M117 n2229 N239 VDD VDD pmos w=2u l=1u
M118 n2229 N528 VDD VDD pmos w=2u l=1u
M119 n2227 net34 VSS VSS nmos w=1u l=1u
M120 net35 n2230 VSS VSS nmos w=1u l=1u
M121 net34 n2211 net35 VSS nmos w=1u l=1u
M122 net34 n2230 VDD VDD pmos w=2u l=1u
M123 net34 n2211 VDD VDD pmos w=2u l=1u
M124 n2227 net34 VDD VDD pmos w=2u l=1u
M125 n2230 net36 VSS VSS nmos w=1u l=1u
M126 net36 n2231 VSS VSS nmos w=1u l=1u
M127 net36 n2232 VSS VSS nmos w=1u l=1u
M128 net36 n2232 net37 VDD pmos w=2u l=1u
M129 n2230 net36 VDD VDD pmos w=2u l=1u
M130 net37 n2231 VDD VDD pmos w=2u l=1u
M131 n2211 n2233 net38 VSS nmos w=1u l=1u
M132 net38 n2231 VSS VSS nmos w=1u l=1u
M133 n2211 n2233 VDD VDD pmos w=2u l=1u
M134 n2211 n2231 VDD VDD pmos w=2u l=1u
M135 n2233 N511 net39 VSS nmos w=1u l=1u
M136 net39 N256 VSS VSS nmos w=1u l=1u
M137 n2233 N511 VDD VDD pmos w=2u l=1u
M138 n2233 N256 VDD VDD pmos w=2u l=1u
M139 n2231 n2235 net40 VSS nmos w=1u l=1u
M140 net40 n2234 VSS VSS nmos w=1u l=1u
M141 n2231 n2235 VDD VDD pmos w=2u l=1u
M142 n2231 n2234 VDD VDD pmos w=2u l=1u
M143 n2234 n2237 net41 VSS nmos w=1u l=1u
M144 net41 n2236 VSS VSS nmos w=1u l=1u
M145 n2234 n2237 VDD VDD pmos w=2u l=1u
M146 n2234 n2236 VDD VDD pmos w=2u l=1u
M147 n2237 N256 net42 VSS nmos w=1u l=1u
M148 net42 N494 VSS VSS nmos w=1u l=1u
M149 n2237 N256 VDD VDD pmos w=2u l=1u
M150 n2237 N494 VDD VDD pmos w=2u l=1u
M151 N6270 n2238 net43 VSS nmos w=1u l=1u
M152 net43 n2218 VSS VSS nmos w=1u l=1u
M153 N6270 n2238 VDD VDD pmos w=2u l=1u
M154 N6270 n2218 VDD VDD pmos w=2u l=1u
M155 n2238 n2240 net44 VSS nmos w=1u l=1u
M156 net44 n2239 VSS VSS nmos w=1u l=1u
M157 n2238 n2240 VDD VDD pmos w=2u l=1u
M158 n2238 n2239 VDD VDD pmos w=2u l=1u
M159 n2240 n2241 net45 VSS nmos w=1u l=1u
M160 net45 n2215 VSS VSS nmos w=1u l=1u
M161 n2240 n2241 VDD VDD pmos w=2u l=1u
M162 n2240 n2215 VDD VDD pmos w=2u l=1u
M163 n2241 n2243 net46 VSS nmos w=1u l=1u
M164 net46 n2242 VSS VSS nmos w=1u l=1u
M165 n2241 n2243 VDD VDD pmos w=2u l=1u
M166 n2241 n2242 VDD VDD pmos w=2u l=1u
M167 n2215 net47 VSS VSS nmos w=1u l=1u
M168 net47 n2243 VSS VSS nmos w=1u l=1u
M169 net47 n2242 VSS VSS nmos w=1u l=1u
M170 net47 n2242 net48 VDD pmos w=2u l=1u
M171 n2215 net47 VDD VDD pmos w=2u l=1u
M172 net48 n2243 VDD VDD pmos w=2u l=1u
M173 n2239 n2244 VDD VDD pmos w=2u l=1u
M174 n2239 n2244 VSS VSS nmos w=1u l=1u
M175 n2218 n2244 net49 VSS nmos w=1u l=1u
M176 net49 n2245 VSS VSS nmos w=1u l=1u
M177 n2218 n2244 VDD VDD pmos w=2u l=1u
M178 n2218 n2245 VDD VDD pmos w=2u l=1u
M179 n2244 n2247 net50 VSS nmos w=1u l=1u
M180 net50 n2246 VSS VSS nmos w=1u l=1u
M181 n2244 n2247 VDD VDD pmos w=2u l=1u
M182 n2244 n2246 VDD VDD pmos w=2u l=1u
M183 n2246 n2249 net51 VSS nmos w=1u l=1u
M184 net51 n2248 VSS VSS nmos w=1u l=1u
M185 n2246 n2249 VDD VDD pmos w=2u l=1u
M186 n2246 n2248 VDD VDD pmos w=2u l=1u
M187 net52 n2243 VSS VSS nmos w=1u l=1u
M188 net53 n2242 VSS VSS nmos w=1u l=1u
M189 n2245 net54 VSS VSS nmos w=1u l=1u
M190 net54 n2243 net55 VSS nmos w=1u l=1u
M191 net54 net52 net53 VSS nmos w=1u l=1u
M192 net55 net53 VSS VSS nmos w=1u l=1u
M193 net54 net52 net56 VDD pmos w=2u l=1u
M194 net52 n2243 VDD VDD pmos w=2u l=1u
M195 net53 n2243 net54 VDD pmos w=2u l=1u
M196 net53 n2242 VDD VDD pmos w=2u l=1u
M197 n2245 net54 VDD VDD pmos w=2u l=1u
M198 net56 net53 VDD VDD pmos w=2u l=1u
M199 n2243 n2250 net57 VSS nmos w=1u l=1u
M200 net57 n2224 VSS VSS nmos w=1u l=1u
M201 n2243 n2250 VDD VDD pmos w=2u l=1u
M202 n2243 n2224 VDD VDD pmos w=2u l=1u
M203 n2250 N222 net58 VSS nmos w=1u l=1u
M204 net58 n2251 VSS VSS nmos w=1u l=1u
M205 n2250 N222 VDD VDD pmos w=2u l=1u
M206 n2250 n2251 VDD VDD pmos w=2u l=1u
M207 n2251 n2205 VSS VSS nmos w=1u l=1u
M208 n2251 n2252 VSS VSS nmos w=1u l=1u
M209 n2251 n2205 net59 VDD pmos w=2u l=1u
M210 net59 n2252 VDD VDD pmos w=2u l=1u
M211 n2224 n2253 net60 VSS nmos w=1u l=1u
M212 net60 n2252 VSS VSS nmos w=1u l=1u
M213 n2224 n2253 VDD VDD pmos w=2u l=1u
M214 n2224 n2252 VDD VDD pmos w=2u l=1u
M215 n2253 N528 net61 VSS nmos w=1u l=1u
M216 net61 N222 VSS VSS nmos w=1u l=1u
M217 n2253 N528 VDD VDD pmos w=2u l=1u
M218 n2253 N222 VDD VDD pmos w=2u l=1u
M219 n2252 net62 VSS VSS nmos w=1u l=1u
M220 net63 n2223 VSS VSS nmos w=1u l=1u
M221 net62 n2254 net63 VSS nmos w=1u l=1u
M222 net62 n2223 VDD VDD pmos w=2u l=1u
M223 net62 n2254 VDD VDD pmos w=2u l=1u
M224 n2252 net62 VDD VDD pmos w=2u l=1u
M225 n2223 n2256 net64 VSS nmos w=1u l=1u
M226 net64 n2255 VSS VSS nmos w=1u l=1u
M227 n2223 n2256 VDD VDD pmos w=2u l=1u
M228 n2223 n2255 VDD VDD pmos w=2u l=1u
M229 n2256 n2258 net65 VSS nmos w=1u l=1u
M230 net65 n2257 VSS VSS nmos w=1u l=1u
M231 n2256 n2258 VDD VDD pmos w=2u l=1u
M232 n2256 n2257 VDD VDD pmos w=2u l=1u
M233 n2254 n2257 net66 VSS nmos w=1u l=1u
M234 net66 n2259 VSS VSS nmos w=1u l=1u
M235 n2254 n2257 VDD VDD pmos w=2u l=1u
M236 n2254 n2259 VDD VDD pmos w=2u l=1u
M237 n2257 n2261 net67 VSS nmos w=1u l=1u
M238 net67 n2260 VSS VSS nmos w=1u l=1u
M239 n2257 n2261 VDD VDD pmos w=2u l=1u
M240 n2257 n2260 VDD VDD pmos w=2u l=1u
M241 n2259 n2255 VSS VSS nmos w=1u l=1u
M242 n2259 n2262 VSS VSS nmos w=1u l=1u
M243 n2259 n2255 net68 VDD pmos w=2u l=1u
M244 net68 n2262 VDD VDD pmos w=2u l=1u
M245 n2255 net69 VSS VSS nmos w=1u l=1u
M246 net70 n2263 VSS VSS nmos w=1u l=1u
M247 net69 n2235 net70 VSS nmos w=1u l=1u
M248 net69 n2263 VDD VDD pmos w=2u l=1u
M249 net69 n2235 VDD VDD pmos w=2u l=1u
M250 n2255 net69 VDD VDD pmos w=2u l=1u
M251 n2263 N511 net71 VSS nmos w=1u l=1u
M252 net71 n2264 VSS VSS nmos w=1u l=1u
M253 n2263 N511 VDD VDD pmos w=2u l=1u
M254 n2263 n2264 VDD VDD pmos w=2u l=1u
M255 n2264 n2266 VSS VSS nmos w=1u l=1u
M256 n2264 n2265 VSS VSS nmos w=1u l=1u
M257 n2264 n2266 net72 VDD pmos w=2u l=1u
M258 net72 n2265 VDD VDD pmos w=2u l=1u
M259 n2266 n2268 VSS VSS nmos w=1u l=1u
M260 n2266 n2267 VSS VSS nmos w=1u l=1u
M261 n2266 n2268 net73 VDD pmos w=2u l=1u
M262 net73 n2267 VDD VDD pmos w=2u l=1u
M263 n2268 n2270 net74 VSS nmos w=1u l=1u
M264 net74 n2269 VSS VSS nmos w=1u l=1u
M265 n2268 n2270 VDD VDD pmos w=2u l=1u
M266 n2268 n2269 VDD VDD pmos w=2u l=1u
M267 n2269 n2271 net75 VSS nmos w=1u l=1u
M268 net75 N239 VSS VSS nmos w=1u l=1u
M269 n2269 n2271 VDD VDD pmos w=2u l=1u
M270 n2269 N239 VDD VDD pmos w=2u l=1u
M271 n2265 n2236 VSS VSS nmos w=1u l=1u
M272 n2265 N494 VSS VSS nmos w=1u l=1u
M273 n2265 n2236 net76 VDD pmos w=2u l=1u
M274 net76 N494 VDD VDD pmos w=2u l=1u
M275 n2235 n2273 net77 VSS nmos w=1u l=1u
M276 net77 n2272 VSS VSS nmos w=1u l=1u
M277 n2235 n2273 VDD VDD pmos w=2u l=1u
M278 n2235 n2272 VDD VDD pmos w=2u l=1u
M279 n2273 N239 net78 VSS nmos w=1u l=1u
M280 net78 N511 VSS VSS nmos w=1u l=1u
M281 n2273 N239 VDD VDD pmos w=2u l=1u
M282 n2273 N511 VDD VDD pmos w=2u l=1u
M283 net79 n2274 VSS VSS nmos w=1u l=1u
M284 net80 n2267 VSS VSS nmos w=1u l=1u
M285 n2272 net81 VSS VSS nmos w=1u l=1u
M286 net81 n2274 net82 VSS nmos w=1u l=1u
M287 net81 net79 net80 VSS nmos w=1u l=1u
M288 net82 net80 VSS VSS nmos w=1u l=1u
M289 net81 net79 net83 VDD pmos w=2u l=1u
M290 net79 n2274 VDD VDD pmos w=2u l=1u
M291 net80 n2274 net81 VDD pmos w=2u l=1u
M292 net80 n2267 VDD VDD pmos w=2u l=1u
M293 n2272 net81 VDD VDD pmos w=2u l=1u
M294 net83 net80 VDD VDD pmos w=2u l=1u
M295 n2274 n2271 VSS VSS nmos w=1u l=1u
M296 n2274 n2275 VSS VSS nmos w=1u l=1u
M297 n2274 n2271 net84 VDD pmos w=2u l=1u
M298 net84 n2275 VDD VDD pmos w=2u l=1u
M299 n2267 n2236 VDD VDD pmos w=2u l=1u
M300 n2267 n2236 VSS VSS nmos w=1u l=1u
M301 n2236 n2277 net85 VSS nmos w=1u l=1u
M302 net85 n2276 VSS VSS nmos w=1u l=1u
M303 n2236 n2277 VDD VDD pmos w=2u l=1u
M304 n2236 n2276 VDD VDD pmos w=2u l=1u
M305 n2277 n2279 net86 VSS nmos w=1u l=1u
M306 net86 n2278 VSS VSS nmos w=1u l=1u
M307 n2277 n2279 VDD VDD pmos w=2u l=1u
M308 n2277 n2278 VDD VDD pmos w=2u l=1u
M309 n2262 n2258 VDD VDD pmos w=2u l=1u
M310 n2262 n2258 VSS VSS nmos w=1u l=1u
M311 n2242 net87 VSS VSS nmos w=1u l=1u
M312 net88 n2281 VSS VSS nmos w=1u l=1u
M313 net87 n2280 net88 VSS nmos w=1u l=1u
M314 net87 n2281 VDD VDD pmos w=2u l=1u
M315 net87 n2280 VDD VDD pmos w=2u l=1u
M316 n2242 net87 VDD VDD pmos w=2u l=1u
M317 n2280 n2283 net89 VSS nmos w=1u l=1u
M318 net89 n2282 VSS VSS nmos w=1u l=1u
M319 n2280 n2283 VDD VDD pmos w=2u l=1u
M320 n2280 n2282 VDD VDD pmos w=2u l=1u
M321 N6260 n2284 net90 VSS nmos w=1u l=1u
M322 net90 n2247 VSS VSS nmos w=1u l=1u
M323 N6260 n2284 VDD VDD pmos w=2u l=1u
M324 N6260 n2247 VDD VDD pmos w=2u l=1u
M325 n2284 net91 VSS VSS nmos w=1u l=1u
M326 net91 n2285 VSS VSS nmos w=1u l=1u
M327 net91 n2286 VSS VSS nmos w=1u l=1u
M328 net91 n2286 net92 VDD pmos w=2u l=1u
M329 n2284 net91 VDD VDD pmos w=2u l=1u
M330 net92 n2285 VDD VDD pmos w=2u l=1u
M331 n2247 n2286 net93 VSS nmos w=1u l=1u
M332 net93 n2285 VSS VSS nmos w=1u l=1u
M333 n2247 n2286 VDD VDD pmos w=2u l=1u
M334 n2247 n2285 VDD VDD pmos w=2u l=1u
M335 n2286 n2288 net94 VSS nmos w=1u l=1u
M336 net94 n2287 VSS VSS nmos w=1u l=1u
M337 n2286 n2288 VDD VDD pmos w=2u l=1u
M338 n2286 n2287 VDD VDD pmos w=2u l=1u
M339 n2287 n2290 net95 VSS nmos w=1u l=1u
M340 net95 n2289 VSS VSS nmos w=1u l=1u
M341 n2287 n2290 VDD VDD pmos w=2u l=1u
M342 n2287 n2289 VDD VDD pmos w=2u l=1u
M343 net96 n2249 VSS VSS nmos w=1u l=1u
M344 net97 n2248 VSS VSS nmos w=1u l=1u
M345 n2285 net98 VSS VSS nmos w=1u l=1u
M346 net98 n2249 net99 VSS nmos w=1u l=1u
M347 net98 net96 net97 VSS nmos w=1u l=1u
M348 net99 net97 VSS VSS nmos w=1u l=1u
M349 net98 net96 net100 VDD pmos w=2u l=1u
M350 net96 n2249 VDD VDD pmos w=2u l=1u
M351 net97 n2249 net98 VDD pmos w=2u l=1u
M352 net97 n2248 VDD VDD pmos w=2u l=1u
M353 n2285 net98 VDD VDD pmos w=2u l=1u
M354 net100 net97 VDD VDD pmos w=2u l=1u
M355 n2249 n2292 net101 VSS nmos w=1u l=1u
M356 net101 n2291 VSS VSS nmos w=1u l=1u
M357 n2249 n2292 VDD VDD pmos w=2u l=1u
M358 n2249 n2291 VDD VDD pmos w=2u l=1u
M359 n2291 n2294 net102 VSS nmos w=1u l=1u
M360 net102 n2293 VSS VSS nmos w=1u l=1u
M361 n2291 n2294 VDD VDD pmos w=2u l=1u
M362 n2291 n2293 VDD VDD pmos w=2u l=1u
M363 net103 n2282 VSS VSS nmos w=1u l=1u
M364 net104 n2283 VSS VSS nmos w=1u l=1u
M365 n2248 net105 VSS VSS nmos w=1u l=1u
M366 net105 n2282 net106 VSS nmos w=1u l=1u
M367 net105 net103 net104 VSS nmos w=1u l=1u
M368 net106 net104 VSS VSS nmos w=1u l=1u
M369 net105 net103 net107 VDD pmos w=2u l=1u
M370 net103 n2282 VDD VDD pmos w=2u l=1u
M371 net104 n2282 net105 VDD pmos w=2u l=1u
M372 net104 n2283 VDD VDD pmos w=2u l=1u
M373 n2248 net105 VDD VDD pmos w=2u l=1u
M374 net107 net104 VDD VDD pmos w=2u l=1u
M375 n2282 net108 VSS VSS nmos w=1u l=1u
M376 net109 n2281 VSS VSS nmos w=1u l=1u
M377 net108 n2295 net109 VSS nmos w=1u l=1u
M378 net108 n2281 VDD VDD pmos w=2u l=1u
M379 net108 n2295 VDD VDD pmos w=2u l=1u
M380 n2282 net108 VDD VDD pmos w=2u l=1u
M381 n2281 n2297 net110 VSS nmos w=1u l=1u
M382 net110 n2296 VSS VSS nmos w=1u l=1u
M383 n2281 n2297 VDD VDD pmos w=2u l=1u
M384 n2281 n2296 VDD VDD pmos w=2u l=1u
M385 n2297 n2299 net111 VSS nmos w=1u l=1u
M386 net111 n2298 VSS VSS nmos w=1u l=1u
M387 n2297 n2299 VDD VDD pmos w=2u l=1u
M388 n2297 n2298 VDD VDD pmos w=2u l=1u
M389 n2298 net112 VSS VSS nmos w=1u l=1u
M390 net112 n2300 VSS VSS nmos w=1u l=1u
M391 net112 n2301 VSS VSS nmos w=1u l=1u
M392 net112 n2301 net113 VDD pmos w=2u l=1u
M393 n2298 net112 VDD VDD pmos w=2u l=1u
M394 net113 n2300 VDD VDD pmos w=2u l=1u
M395 net114 n2260 VSS VSS nmos w=1u l=1u
M396 net115 n2261 VSS VSS nmos w=1u l=1u
M397 n2296 net116 VSS VSS nmos w=1u l=1u
M398 net116 n2260 net117 VSS nmos w=1u l=1u
M399 net116 net114 net115 VSS nmos w=1u l=1u
M400 net117 net115 VSS VSS nmos w=1u l=1u
M401 net116 net114 net118 VDD pmos w=2u l=1u
M402 net114 n2260 VDD VDD pmos w=2u l=1u
M403 net115 n2260 net116 VDD pmos w=2u l=1u
M404 net115 n2261 VDD VDD pmos w=2u l=1u
M405 n2296 net116 VDD VDD pmos w=2u l=1u
M406 net118 net115 VDD VDD pmos w=2u l=1u
M407 n2260 n2302 VDD VDD pmos w=2u l=1u
M408 n2260 n2302 VSS VSS nmos w=1u l=1u
M409 n2295 n2304 net119 VSS nmos w=1u l=1u
M410 net119 n2303 VSS VSS nmos w=1u l=1u
M411 n2295 n2304 VDD VDD pmos w=2u l=1u
M412 n2295 n2303 VDD VDD pmos w=2u l=1u
M413 net120 n2261 VSS VSS nmos w=1u l=1u
M414 net121 n2302 VSS VSS nmos w=1u l=1u
M415 n2304 net122 VSS VSS nmos w=1u l=1u
M416 net122 n2261 net123 VSS nmos w=1u l=1u
M417 net122 net120 net121 VSS nmos w=1u l=1u
M418 net123 net121 VSS VSS nmos w=1u l=1u
M419 net122 net120 net124 VDD pmos w=2u l=1u
M420 net120 n2261 VDD VDD pmos w=2u l=1u
M421 net121 n2261 net122 VDD pmos w=2u l=1u
M422 net121 n2302 VDD VDD pmos w=2u l=1u
M423 n2304 net122 VDD VDD pmos w=2u l=1u
M424 net124 net121 VDD VDD pmos w=2u l=1u
M425 n2261 N511 net125 VSS nmos w=1u l=1u
M426 net125 N222 VSS VSS nmos w=1u l=1u
M427 n2261 N511 VDD VDD pmos w=2u l=1u
M428 n2261 N222 VDD VDD pmos w=2u l=1u
M429 n2302 n2258 net126 VSS nmos w=1u l=1u
M430 net126 n2305 VSS VSS nmos w=1u l=1u
M431 n2302 n2258 VDD VDD pmos w=2u l=1u
M432 n2302 n2305 VDD VDD pmos w=2u l=1u
M433 n2258 n2307 net127 VSS nmos w=1u l=1u
M434 net127 n2306 VSS VSS nmos w=1u l=1u
M435 n2258 n2307 VDD VDD pmos w=2u l=1u
M436 n2258 n2306 VDD VDD pmos w=2u l=1u
M437 n2307 n2309 net128 VSS nmos w=1u l=1u
M438 net128 n2308 VSS VSS nmos w=1u l=1u
M439 n2307 n2309 VDD VDD pmos w=2u l=1u
M440 n2307 n2308 VDD VDD pmos w=2u l=1u
M441 n2305 n2308 net129 VSS nmos w=1u l=1u
M442 net129 n2310 VSS VSS nmos w=1u l=1u
M443 n2305 n2308 VDD VDD pmos w=2u l=1u
M444 n2305 n2310 VDD VDD pmos w=2u l=1u
M445 n2308 n2312 net130 VSS nmos w=1u l=1u
M446 net130 n2311 VSS VSS nmos w=1u l=1u
M447 n2308 n2312 VDD VDD pmos w=2u l=1u
M448 n2308 n2311 VDD VDD pmos w=2u l=1u
M449 n2310 n2306 VSS VSS nmos w=1u l=1u
M450 n2310 n2313 VSS VSS nmos w=1u l=1u
M451 n2310 n2306 net131 VDD pmos w=2u l=1u
M452 net131 n2313 VDD VDD pmos w=2u l=1u
M453 n2306 net132 VSS VSS nmos w=1u l=1u
M454 net133 n2314 VSS VSS nmos w=1u l=1u
M455 net132 n2276 net133 VSS nmos w=1u l=1u
M456 net132 n2314 VDD VDD pmos w=2u l=1u
M457 net132 n2276 VDD VDD pmos w=2u l=1u
M458 n2306 net132 VDD VDD pmos w=2u l=1u
M459 n2314 N494 net134 VSS nmos w=1u l=1u
M460 net134 n2315 VSS VSS nmos w=1u l=1u
M461 n2314 N494 VDD VDD pmos w=2u l=1u
M462 n2314 n2315 VDD VDD pmos w=2u l=1u
M463 n2315 n2317 VSS VSS nmos w=1u l=1u
M464 n2315 n2316 VSS VSS nmos w=1u l=1u
M465 n2315 n2317 net135 VDD pmos w=2u l=1u
M466 net135 n2316 VDD VDD pmos w=2u l=1u
M467 n2317 n2319 VSS VSS nmos w=1u l=1u
M468 n2317 n2318 VSS VSS nmos w=1u l=1u
M469 n2317 n2319 net136 VDD pmos w=2u l=1u
M470 net136 n2318 VDD VDD pmos w=2u l=1u
M471 n2319 n2270 net137 VSS nmos w=1u l=1u
M472 net137 n2320 VSS VSS nmos w=1u l=1u
M473 n2319 n2270 VDD VDD pmos w=2u l=1u
M474 n2319 n2320 VDD VDD pmos w=2u l=1u
M475 n2320 n2321 net138 VSS nmos w=1u l=1u
M476 net138 N239 VSS VSS nmos w=1u l=1u
M477 n2320 n2321 VDD VDD pmos w=2u l=1u
M478 n2320 N239 VDD VDD pmos w=2u l=1u
M479 n2318 n2279 VDD VDD pmos w=2u l=1u
M480 n2318 n2279 VSS VSS nmos w=1u l=1u
M481 n2316 n2279 VSS VSS nmos w=1u l=1u
M482 n2316 N477 VSS VSS nmos w=1u l=1u
M483 n2316 n2279 net139 VDD pmos w=2u l=1u
M484 net139 N477 VDD VDD pmos w=2u l=1u
M485 n2276 n2323 net140 VSS nmos w=1u l=1u
M486 net140 n2322 VSS VSS nmos w=1u l=1u
M487 n2276 n2323 VDD VDD pmos w=2u l=1u
M488 n2276 n2322 VDD VDD pmos w=2u l=1u
M489 n2323 N239 net141 VSS nmos w=1u l=1u
M490 net141 N494 VSS VSS nmos w=1u l=1u
M491 n2323 N239 VDD VDD pmos w=2u l=1u
M492 n2323 N494 VDD VDD pmos w=2u l=1u
M493 net142 n2278 VSS VSS nmos w=1u l=1u
M494 net143 n2279 VSS VSS nmos w=1u l=1u
M495 n2322 net144 VSS VSS nmos w=1u l=1u
M496 net144 n2278 net145 VSS nmos w=1u l=1u
M497 net144 net142 net143 VSS nmos w=1u l=1u
M498 net145 net143 VSS VSS nmos w=1u l=1u
M499 net144 net142 net146 VDD pmos w=2u l=1u
M500 net142 n2278 VDD VDD pmos w=2u l=1u
M501 net143 n2278 net144 VDD pmos w=2u l=1u
M502 net143 n2279 VDD VDD pmos w=2u l=1u
M503 n2322 net144 VDD VDD pmos w=2u l=1u
M504 net146 net143 VDD VDD pmos w=2u l=1u
M505 n2278 N256 net147 VSS nmos w=1u l=1u
M506 net147 N477 VSS VSS nmos w=1u l=1u
M507 n2278 N256 VDD VDD pmos w=2u l=1u
M508 n2278 N477 VDD VDD pmos w=2u l=1u
M509 n2279 n2325 net148 VSS nmos w=1u l=1u
M510 net148 n2324 VSS VSS nmos w=1u l=1u
M511 n2279 n2325 VDD VDD pmos w=2u l=1u
M512 n2279 n2324 VDD VDD pmos w=2u l=1u
M513 n2325 n2327 net149 VSS nmos w=1u l=1u
M514 net149 n2326 VSS VSS nmos w=1u l=1u
M515 n2325 n2327 VDD VDD pmos w=2u l=1u
M516 n2325 n2326 VDD VDD pmos w=2u l=1u
M517 n2313 n2309 VDD VDD pmos w=2u l=1u
M518 n2313 n2309 VSS VSS nmos w=1u l=1u
M519 n2303 n2329 VSS VSS nmos w=1u l=1u
M520 n2303 n2328 VSS VSS nmos w=1u l=1u
M521 n2303 n2329 net150 VDD pmos w=2u l=1u
M522 net150 n2328 VDD VDD pmos w=2u l=1u
M523 n2329 n2300 VSS VSS nmos w=1u l=1u
M524 n2329 n2301 VSS VSS nmos w=1u l=1u
M525 n2329 n2300 net151 VDD pmos w=2u l=1u
M526 net151 n2301 VDD VDD pmos w=2u l=1u
M527 n2328 n2299 VDD VDD pmos w=2u l=1u
M528 n2328 n2299 VSS VSS nmos w=1u l=1u
M529 n2283 N528 net152 VSS nmos w=1u l=1u
M530 net152 N205 VSS VSS nmos w=1u l=1u
M531 n2283 N528 VDD VDD pmos w=2u l=1u
M532 n2283 N205 VDD VDD pmos w=2u l=1u
M533 N6250 n2330 net153 VSS nmos w=1u l=1u
M534 net153 n2288 VSS VSS nmos w=1u l=1u
M535 N6250 n2330 VDD VDD pmos w=2u l=1u
M536 N6250 n2288 VDD VDD pmos w=2u l=1u
M537 n2330 net154 VSS VSS nmos w=1u l=1u
M538 net154 n2331 VSS VSS nmos w=1u l=1u
M539 net154 n2332 VSS VSS nmos w=1u l=1u
M540 net154 n2332 net155 VDD pmos w=2u l=1u
M541 n2330 net154 VDD VDD pmos w=2u l=1u
M542 net155 n2331 VDD VDD pmos w=2u l=1u
M543 n2288 n2332 net156 VSS nmos w=1u l=1u
M544 net156 n2331 VSS VSS nmos w=1u l=1u
M545 n2288 n2332 VDD VDD pmos w=2u l=1u
M546 n2288 n2331 VDD VDD pmos w=2u l=1u
M547 n2332 n2334 net157 VSS nmos w=1u l=1u
M548 net157 n2333 VSS VSS nmos w=1u l=1u
M549 n2332 n2334 VDD VDD pmos w=2u l=1u
M550 n2332 n2333 VDD VDD pmos w=2u l=1u
M551 n2333 n2336 net158 VSS nmos w=1u l=1u
M552 net158 n2335 VSS VSS nmos w=1u l=1u
M553 n2333 n2336 VDD VDD pmos w=2u l=1u
M554 n2333 n2335 VDD VDD pmos w=2u l=1u
M555 net159 n2290 VSS VSS nmos w=1u l=1u
M556 net160 n2289 VSS VSS nmos w=1u l=1u
M557 n2331 net161 VSS VSS nmos w=1u l=1u
M558 net161 n2290 net162 VSS nmos w=1u l=1u
M559 net161 net159 net160 VSS nmos w=1u l=1u
M560 net162 net160 VSS VSS nmos w=1u l=1u
M561 net161 net159 net163 VDD pmos w=2u l=1u
M562 net159 n2290 VDD VDD pmos w=2u l=1u
M563 net160 n2290 net161 VDD pmos w=2u l=1u
M564 net160 n2289 VDD VDD pmos w=2u l=1u
M565 n2331 net161 VDD VDD pmos w=2u l=1u
M566 net163 net160 VDD VDD pmos w=2u l=1u
M567 n2290 n2338 net164 VSS nmos w=1u l=1u
M568 net164 n2337 VSS VSS nmos w=1u l=1u
M569 n2290 n2338 VDD VDD pmos w=2u l=1u
M570 n2290 n2337 VDD VDD pmos w=2u l=1u
M571 n2337 n2340 net165 VSS nmos w=1u l=1u
M572 net165 n2339 VSS VSS nmos w=1u l=1u
M573 n2337 n2340 VDD VDD pmos w=2u l=1u
M574 n2337 n2339 VDD VDD pmos w=2u l=1u
M575 net166 n2293 VSS VSS nmos w=1u l=1u
M576 net167 n2294 VSS VSS nmos w=1u l=1u
M577 n2289 net168 VSS VSS nmos w=1u l=1u
M578 net168 n2293 net169 VSS nmos w=1u l=1u
M579 net168 net166 net167 VSS nmos w=1u l=1u
M580 net169 net167 VSS VSS nmos w=1u l=1u
M581 net168 net166 net170 VDD pmos w=2u l=1u
M582 net166 n2293 VDD VDD pmos w=2u l=1u
M583 net167 n2293 net168 VDD pmos w=2u l=1u
M584 net167 n2294 VDD VDD pmos w=2u l=1u
M585 n2289 net168 VDD VDD pmos w=2u l=1u
M586 net170 net167 VDD VDD pmos w=2u l=1u
M587 n2293 net171 VSS VSS nmos w=1u l=1u
M588 net172 n2292 VSS VSS nmos w=1u l=1u
M589 net171 n2341 net172 VSS nmos w=1u l=1u
M590 net171 n2292 VDD VDD pmos w=2u l=1u
M591 net171 n2341 VDD VDD pmos w=2u l=1u
M592 n2293 net171 VDD VDD pmos w=2u l=1u
M593 n2292 n2343 net173 VSS nmos w=1u l=1u
M594 net173 n2342 VSS VSS nmos w=1u l=1u
M595 n2292 n2343 VDD VDD pmos w=2u l=1u
M596 n2292 n2342 VDD VDD pmos w=2u l=1u
M597 n2343 n2345 net174 VSS nmos w=1u l=1u
M598 net174 n2344 VSS VSS nmos w=1u l=1u
M599 n2343 n2345 VDD VDD pmos w=2u l=1u
M600 n2343 n2344 VDD VDD pmos w=2u l=1u
M601 n2344 net175 VSS VSS nmos w=1u l=1u
M602 net175 n2346 VSS VSS nmos w=1u l=1u
M603 net175 n2347 VSS VSS nmos w=1u l=1u
M604 net175 n2347 net176 VDD pmos w=2u l=1u
M605 n2344 net175 VDD VDD pmos w=2u l=1u
M606 net176 n2346 VDD VDD pmos w=2u l=1u
M607 net177 n2300 VSS VSS nmos w=1u l=1u
M608 net178 n2301 VSS VSS nmos w=1u l=1u
M609 n2342 net179 VSS VSS nmos w=1u l=1u
M610 net179 n2300 net180 VSS nmos w=1u l=1u
M611 net179 net177 net178 VSS nmos w=1u l=1u
M612 net180 net178 VSS VSS nmos w=1u l=1u
M613 net179 net177 net181 VDD pmos w=2u l=1u
M614 net177 n2300 VDD VDD pmos w=2u l=1u
M615 net178 n2300 net179 VDD pmos w=2u l=1u
M616 net178 n2301 VDD VDD pmos w=2u l=1u
M617 n2342 net179 VDD VDD pmos w=2u l=1u
M618 net181 net178 VDD VDD pmos w=2u l=1u
M619 n2301 n2348 VDD VDD pmos w=2u l=1u
M620 n2301 n2348 VSS VSS nmos w=1u l=1u
M621 n2341 n2350 net182 VSS nmos w=1u l=1u
M622 net182 n2349 VSS VSS nmos w=1u l=1u
M623 n2341 n2350 VDD VDD pmos w=2u l=1u
M624 n2341 n2349 VDD VDD pmos w=2u l=1u
M625 net183 n2348 VSS VSS nmos w=1u l=1u
M626 net184 n2300 VSS VSS nmos w=1u l=1u
M627 n2350 net185 VSS VSS nmos w=1u l=1u
M628 net185 n2348 net186 VSS nmos w=1u l=1u
M629 net185 net183 net184 VSS nmos w=1u l=1u
M630 net186 net184 VSS VSS nmos w=1u l=1u
M631 net185 net183 net187 VDD pmos w=2u l=1u
M632 net183 n2348 VDD VDD pmos w=2u l=1u
M633 net184 n2348 net185 VDD pmos w=2u l=1u
M634 net184 n2300 VDD VDD pmos w=2u l=1u
M635 n2350 net185 VDD VDD pmos w=2u l=1u
M636 net187 net184 VDD VDD pmos w=2u l=1u
M637 n2348 N511 net188 VSS nmos w=1u l=1u
M638 net188 N205 VSS VSS nmos w=1u l=1u
M639 n2348 N511 VDD VDD pmos w=2u l=1u
M640 n2348 N205 VDD VDD pmos w=2u l=1u
M641 n2300 n2299 net189 VSS nmos w=1u l=1u
M642 net189 n2351 VSS VSS nmos w=1u l=1u
M643 n2300 n2299 VDD VDD pmos w=2u l=1u
M644 n2300 n2351 VDD VDD pmos w=2u l=1u
M645 n2299 n2353 net190 VSS nmos w=1u l=1u
M646 net190 n2352 VSS VSS nmos w=1u l=1u
M647 n2299 n2353 VDD VDD pmos w=2u l=1u
M648 n2299 n2352 VDD VDD pmos w=2u l=1u
M649 n2353 n2355 net191 VSS nmos w=1u l=1u
M650 net191 n2354 VSS VSS nmos w=1u l=1u
M651 n2353 n2355 VDD VDD pmos w=2u l=1u
M652 n2353 n2354 VDD VDD pmos w=2u l=1u
M653 n2354 n2357 net192 VSS nmos w=1u l=1u
M654 net192 n2356 VSS VSS nmos w=1u l=1u
M655 n2354 n2357 VDD VDD pmos w=2u l=1u
M656 n2354 n2356 VDD VDD pmos w=2u l=1u
M657 net193 n2311 VSS VSS nmos w=1u l=1u
M658 net194 n2312 VSS VSS nmos w=1u l=1u
M659 n2352 net195 VSS VSS nmos w=1u l=1u
M660 net195 n2311 net196 VSS nmos w=1u l=1u
M661 net195 net193 net194 VSS nmos w=1u l=1u
M662 net196 net194 VSS VSS nmos w=1u l=1u
M663 net195 net193 net197 VDD pmos w=2u l=1u
M664 net193 n2311 VDD VDD pmos w=2u l=1u
M665 net194 n2311 net195 VDD pmos w=2u l=1u
M666 net194 n2312 VDD VDD pmos w=2u l=1u
M667 n2352 net195 VDD VDD pmos w=2u l=1u
M668 net197 net194 VDD VDD pmos w=2u l=1u
M669 n2311 n2358 VDD VDD pmos w=2u l=1u
M670 n2311 n2358 VSS VSS nmos w=1u l=1u
M671 n2351 n2360 net198 VSS nmos w=1u l=1u
M672 net198 n2359 VSS VSS nmos w=1u l=1u
M673 n2351 n2360 VDD VDD pmos w=2u l=1u
M674 n2351 n2359 VDD VDD pmos w=2u l=1u
M675 net199 n2312 VSS VSS nmos w=1u l=1u
M676 net200 n2358 VSS VSS nmos w=1u l=1u
M677 n2360 net201 VSS VSS nmos w=1u l=1u
M678 net201 n2312 net202 VSS nmos w=1u l=1u
M679 net201 net199 net200 VSS nmos w=1u l=1u
M680 net202 net200 VSS VSS nmos w=1u l=1u
M681 net201 net199 net203 VDD pmos w=2u l=1u
M682 net199 n2312 VDD VDD pmos w=2u l=1u
M683 net200 n2312 net201 VDD pmos w=2u l=1u
M684 net200 n2358 VDD VDD pmos w=2u l=1u
M685 n2360 net201 VDD VDD pmos w=2u l=1u
M686 net203 net200 VDD VDD pmos w=2u l=1u
M687 n2312 N494 net204 VSS nmos w=1u l=1u
M688 net204 N222 VSS VSS nmos w=1u l=1u
M689 n2312 N494 VDD VDD pmos w=2u l=1u
M690 n2312 N222 VDD VDD pmos w=2u l=1u
M691 n2358 n2309 net205 VSS nmos w=1u l=1u
M692 net205 n2361 VSS VSS nmos w=1u l=1u
M693 n2358 n2309 VDD VDD pmos w=2u l=1u
M694 n2358 n2361 VDD VDD pmos w=2u l=1u
M695 n2309 n2363 net206 VSS nmos w=1u l=1u
M696 net206 n2362 VSS VSS nmos w=1u l=1u
M697 n2309 n2363 VDD VDD pmos w=2u l=1u
M698 n2309 n2362 VDD VDD pmos w=2u l=1u
M699 n2363 n2365 net207 VSS nmos w=1u l=1u
M700 net207 n2364 VSS VSS nmos w=1u l=1u
M701 n2363 n2365 VDD VDD pmos w=2u l=1u
M702 n2363 n2364 VDD VDD pmos w=2u l=1u
M703 n2361 n2364 net208 VSS nmos w=1u l=1u
M704 net208 n2366 VSS VSS nmos w=1u l=1u
M705 n2361 n2364 VDD VDD pmos w=2u l=1u
M706 n2361 n2366 VDD VDD pmos w=2u l=1u
M707 n2364 n2368 net209 VSS nmos w=1u l=1u
M708 net209 n2367 VSS VSS nmos w=1u l=1u
M709 n2364 n2368 VDD VDD pmos w=2u l=1u
M710 n2364 n2367 VDD VDD pmos w=2u l=1u
M711 n2366 n2362 VSS VSS nmos w=1u l=1u
M712 n2366 n2369 VSS VSS nmos w=1u l=1u
M713 n2366 n2362 net210 VDD pmos w=2u l=1u
M714 net210 n2369 VDD VDD pmos w=2u l=1u
M715 n2362 net211 VSS VSS nmos w=1u l=1u
M716 net212 n2370 VSS VSS nmos w=1u l=1u
M717 net211 n2324 net212 VSS nmos w=1u l=1u
M718 net211 n2370 VDD VDD pmos w=2u l=1u
M719 net211 n2324 VDD VDD pmos w=2u l=1u
M720 n2362 net211 VDD VDD pmos w=2u l=1u
M721 n2370 N477 net213 VSS nmos w=1u l=1u
M722 net213 n2371 VSS VSS nmos w=1u l=1u
M723 n2370 N477 VDD VDD pmos w=2u l=1u
M724 n2370 n2371 VDD VDD pmos w=2u l=1u
M725 n2371 n2373 VSS VSS nmos w=1u l=1u
M726 n2371 n2372 VSS VSS nmos w=1u l=1u
M727 n2371 n2373 net214 VDD pmos w=2u l=1u