* Synopsys Nettran: RHEL64 R-2020.09.5783960 2020/08/19 
* Created:  8/01/2025  14:17   
* Options: -verilog c7552_net_mod.v -sp tcbn45gsbwp_120b.spi -verilog-b0 VSS -verilog-b1 VDD -outType SPICE_FLAT -outName c7552_net_ft.sp 

.GLOBAL VDDL VDD VSS 

.SUBCKT c7552 N1 N5 N9 N12 N15 N18 N23 N26 N29 N32 N35 N38 N41 N44 N47 N50 N53 N54 
+ N55 N56 N57 N58 N59 N60 N61 N62 N63 N64 N65 N66 N69 N70 N73 N74 N75 N76 N77 N78 
+ N79 N80 N81 N82 N83 N84 N85 N86 N87 N88 N89 N94 N97 N100 N103 N106 N109 N110 N111 
+ N112 N113 N114 N115 N118 N121 N124 N127 N130 N133 N134 N135 N138 N141 N144 N147 
+ N150 N151 N152 N153 N154 N155 N156 N157 N158 N159 N160 N161 N162 N163 N164 N165 
+ N166 N167 N168 N169 N170 N171 N172 N173 N174 N175 N176 N177 N178 N179 N180 N181 
+ N182 N183 N184 N185 N186 N187 N188 N189 N190 N191 N192 N193 N194 N195 N196 N197 
+ N198 N199 N200 N201 N202 N203 N204 N205 N206 N207 N208 N209 N210 N211 N212 N213 
+ N214 N215 N216 N217 N218 N219 N220 N221 N222 N223 N224 N225 N226 N227 N228 N229 
+ N230 N231 N232 N233 N234 N235 N236 N237 N238 N239 N240 N242 N245 N248 N251 N254 
+ N257 N260 N263 N267 N271 N274 N277 N280 N283 N286 N289 N293 N296 N299 N303 N307 
+ N310 N313 N316 N319 N322 N325 N328 N331 N334 N337 N340 N343 N346 N349 N352 N355 
+ N358 N361 N364 N367 N382 N241_I N582 N881 N882 N883 N884 N885 N1112 N1113 N1781 
+ N10025 N10759 N10628 N10706 N10109 N10110 N10111 N10112 N10350 N10351 N10352 N10353 
+ N10574 N10575 N10576 N10632 N10641 N10704 N10711 N10712 N10713 N10714 N10715 N10716 
+ N10717 N10718 N10729 N10760 N10761 N10762 N10763 N10827 N10778 N10781 N10868 N10869 
+ N10870 N10871 N10905 N10906 N10907 N10908 N1387 N1388 N1394 N1397 VDD VSS 
M_U771/M_u2 n1184 N18 VSS VSS nch W=0.27u L=0.04u 
M_U771/M_u1 n1184 N18 VDD VDD pch W=0.41u L=0.04u 
M_U772/MU1-M_u2 N881 U772/net7 VSS VSS nch W=0.155u L=0.04u 
M_U772/M_u7-M_u4 U772/net7 N57 VSS VSS nch W=0.155u L=0.04u 
M_U772/M_u7-M_u3 U772/net7 N5 VSS VSS nch W=0.155u L=0.04u 
M_U772/MU1-M_u3 N881 U772/net7 VDD VDD pch W=0.205u L=0.04u 
M_U772/M_u7-M_u1 U772/X_u7-net8 N5 VDD VDD pch W=0.205u L=0.04u 
M_U772/M_u7-M_u2 U772/net7 N57 U772/X_u7-net8 VDD pch W=0.205u L=0.04u 
M_U773/M_u2 N582 N15 VSS VSS nch W=0.135u L=0.04u 
M_U773/M_u1 N582 N15 VDD VDD pch W=0.205u L=0.04u 
M_U774/M_u3-M_u2 N1781 U774/net6 VSS VSS nch W=0.155u L=0.04u 
M_U774/M_u2-M_u4 U774/X_u2-net6 N1 VSS VSS nch W=0.155u L=0.04u 
M_U774/M_u2-M_u3 U774/net6 N163 U774/X_u2-net6 VSS nch W=0.155u L=0.04u 
M_U774/M_u3-M_u3 N1781 U774/net6 VDD VDD pch W=0.205u L=0.04u 
M_U774/M_u2-M_u2 U774/net6 N1 VDD VDD pch W=0.205u L=0.04u 
M_U774/M_u2-M_u1 U774/net6 N163 VDD VDD pch W=0.205u L=0.04u 
M_U775/MI15-M_u2 U775/net19 n749 VSS VSS nch W=0.155u L=0.04u 
M_U775/MI21 N1397 n749 U775/net40 VSS nch W=0.155u L=0.04u 
M_U775/MI12 N1397 U775/net19 U775/net36 VSS nch W=0.155u L=0.04u 
M_U775/MI20 U775/net40 n748 VSS VSS nch W=0.31u L=0.04u 
M_U775/MI19 U775/net36 n747 VSS VSS nch W=0.155u L=0.04u 
M_U775/MI15-M_u3 U775/net19 n749 VDD VDD pch W=0.205u L=0.04u 
M_U775/MI25 N1397 U775/net19 U775/net26 VDD pch W=0.325u L=0.04u 
M_U775/MI24 U775/net26 n748 VDD VDD pch W=0.41u L=0.04u 
M_U775/MI5 N1397 n749 U775/net30 VDD pch W=0.325u L=0.04u 
M_U775/MI111 U775/net30 n747 VDD VDD pch W=0.205u L=0.04u 
M_U776/MI15-M_u3 U776/net28 U776/net20 U776/net64 VSS nch W=0.155u L=0.04u 
M_U776/MI8-M_u3 U776/net24 U776/net30 U776/net32 VSS nch W=0.155u L=0.04u 
M_U776/MI17-M_u3 U776/net28 U776/net40 U776/net24 VSS nch W=0.155u L=0.04u 
M_U776/MI11-M_u3 U776/net40 n753 U776/net108 VSS nch W=0.155u L=0.04u 
M_U776/MI9-M_u3 U776/net40 U776/net106 U776/net104 VSS nch W=0.155u L=0.04u 
M_U776/MI21 U776/net24 n750 U776/net050 VSS nch W=0.155u L=0.04u 
M_U776/MI22 U776/net050 U776/net32 VSS VSS nch W=0.155u L=0.04u 
M_U776/MI19-M_u2 U776/net20 U776/net40 VSS VSS nch W=0.155u L=0.04u 
M_U776/MI13-M_u2 U776/net106 n753 VSS VSS nch W=0.155u L=0.04u 
M_U776/MI14-M_u2 U776/net104 n752 VSS VSS nch W=0.155u L=0.04u 
M_U776/M_u8-M_u2 U776/net30 n750 VSS VSS nch W=0.155u L=0.04u 
M_U776/MI12-M_u2 U776/net108 U776/net104 VSS VSS nch W=0.155u L=0.04u 
M_U776/MU20-M_u2 n748 U776/net28 VSS VSS nch W=0.155u L=0.04u 
M_U776/MI1-M_u2 U776/net32 n751 VSS VSS nch W=0.155u L=0.04u 
M_U776/MI16-M_u2 U776/net64 U776/net24 VSS VSS nch W=0.2u L=0.04u 
M_U776/MI15-M_u2 U776/net28 U776/net40 U776/net64 VDD pch W=0.205u L=0.04u 
M_U776/MI8-M_u2 U776/net24 n750 U776/net32 VDD pch W=0.205u L=0.04u 
M_U776/MI17-M_u2 U776/net28 U776/net20 U776/net24 VDD pch W=0.205u L=0.04u 
M_U776/MI11-M_u2 U776/net40 U776/net106 U776/net108 VDD pch W=0.205u L=0.04u 
M_U776/MI9-M_u2 U776/net40 n753 U776/net104 VDD pch W=0.205u L=0.04u 
M_U776/MI19-M_u3 U776/net20 U776/net40 VDD VDD pch W=0.205u L=0.04u 
M_U776/MI13-M_u3 U776/net106 n753 VDD VDD pch W=0.205u L=0.04u 
M_U776/MI14-M_u3 U776/net104 n752 VDD VDD pch W=0.205u L=0.04u 
M_U776/M_u8-M_u3 U776/net30 n750 VDD VDD pch W=0.205u L=0.04u 
M_U776/MI12-M_u3 U776/net108 U776/net104 VDD VDD pch W=0.205u L=0.04u 
M_U776/MU20-M_u3 n748 U776/net28 VDD VDD pch W=0.205u L=0.04u 
M_U776/MI1-M_u3 U776/net32 n751 VDD VDD pch W=0.205u L=0.04u 
M_U776/MI16-M_u3 U776/net64 U776/net24 VDD VDD pch W=0.28u L=0.04u 
M_U776/MI20 U776/net24 U776/net30 U776/net045 VDD pch W=0.205u L=0.04u 
M_U776/M_u2 U776/net045 U776/net32 VDD VDD pch W=0.205u L=0.04u 
M_U777/MI15 U777/net29 U777/net21 U777/net041 VSS nch W=0.155u L=0.04u 
M_U777/MU63 U777/net035 U777/net19 VSS VSS nch W=0.155u L=0.04u 
M_U777/MI14 U777/net041 U777/net13 VSS VSS nch W=0.155u L=0.04u 
M_U777/MI42 U777/net25 n755 U777/net035 VSS nch W=0.155u L=0.04u 
M_U777/M_u6-M_u3 U777/net19 U777/net17 U777/net25 VSS nch W=0.155u L=0.04u 
M_U777/MU18-M_u3 U777/net13 U777/net25 U777/net29 VSS nch W=0.155u L=0.04u 
M_U777/MI1-M_u2 n752 U777/net29 VSS VSS nch W=0.155u L=0.04u 
M_U777/MI3-M_u2 U777/net13 n756 VSS VSS nch W=0.155u L=0.04u 
M_U777/MI7-M_u2 U777/net17 n755 VSS VSS nch W=0.155u L=0.04u 
M_U777/MI2-M_u2 U777/net19 n754 VSS VSS nch W=0.155u L=0.04u 
M_U777/MI6-M_u2 U777/net21 U777/net25 VSS VSS nch W=0.155u L=0.04u 
M_U777/MU62 U777/net028 U777/net19 VDD VDD pch W=0.205u L=0.04u 
M_U777/MI8 U777/net25 U777/net17 U777/net028 VDD pch W=0.205u L=0.04u 
M_U777/MI12 U777/net29 U777/net25 U777/net029 VDD pch W=0.205u L=0.04u 
M_U777/MI13 U777/net029 U777/net13 VDD VDD pch W=0.205u L=0.04u 
M_U777/M_u6-M_u2 U777/net19 n755 U777/net25 VDD pch W=0.205u L=0.04u 
M_U777/MU18-M_u2 U777/net13 U777/net21 U777/net29 VDD pch W=0.205u L=0.04u 
M_U777/MI1-M_u3 n752 U777/net29 VDD VDD pch W=0.205u L=0.04u 
M_U777/MI3-M_u3 U777/net13 n756 VDD VDD pch W=0.205u L=0.04u 
M_U777/MI7-M_u3 U777/net17 n755 VDD VDD pch W=0.205u L=0.04u 
M_U777/MI2-M_u3 U777/net19 n754 VDD VDD pch W=0.205u L=0.04u 
M_U777/MI6-M_u3 U777/net21 U777/net25 VDD VDD pch W=0.205u L=0.04u 
M_U778/MI15-M_u3 U778/net28 U778/net20 U778/net64 VSS nch W=0.155u L=0.04u 
M_U778/MI8-M_u3 U778/net24 U778/net30 U778/net32 VSS nch W=0.155u L=0.04u 
M_U778/MI17-M_u3 U778/net28 U778/net40 U778/net24 VSS nch W=0.155u L=0.04u 
M_U778/MI11-M_u3 U778/net40 n753 U778/net108 VSS nch W=0.155u L=0.04u 
M_U778/MI9-M_u3 U778/net40 U778/net106 U778/net104 VSS nch W=0.155u L=0.04u 
M_U778/MI21 U778/net24 n757 U778/net050 VSS nch W=0.155u L=0.04u 
M_U778/MI22 U778/net050 U778/net32 VSS VSS nch W=0.155u L=0.04u 
M_U778/MI19-M_u2 U778/net20 U778/net40 VSS VSS nch W=0.155u L=0.04u 
M_U778/MI13-M_u2 U778/net106 n753 VSS VSS nch W=0.155u L=0.04u 
M_U778/MI14-M_u2 U778/net104 n759 VSS VSS nch W=0.155u L=0.04u 
M_U778/M_u8-M_u2 U778/net30 n757 VSS VSS nch W=0.155u L=0.04u 
M_U778/MI12-M_u2 U778/net108 U778/net104 VSS VSS nch W=0.155u L=0.04u 
M_U778/MU20-M_u2 n747 U778/net28 VSS VSS nch W=0.155u L=0.04u 
M_U778/MI1-M_u2 U778/net32 n758 VSS VSS nch W=0.155u L=0.04u 
M_U778/MI16-M_u2 U778/net64 U778/net24 VSS VSS nch W=0.2u L=0.04u 
M_U778/MI15-M_u2 U778/net28 U778/net40 U778/net64 VDD pch W=0.205u L=0.04u 
M_U778/MI8-M_u2 U778/net24 n757 U778/net32 VDD pch W=0.205u L=0.04u 
M_U778/MI17-M_u2 U778/net28 U778/net20 U778/net24 VDD pch W=0.205u L=0.04u 
M_U778/MI11-M_u2 U778/net40 U778/net106 U778/net108 VDD pch W=0.205u L=0.04u 
M_U778/MI9-M_u2 U778/net40 n753 U778/net104 VDD pch W=0.205u L=0.04u 
M_U778/MI19-M_u3 U778/net20 U778/net40 VDD VDD pch W=0.205u L=0.04u 
M_U778/MI13-M_u3 U778/net106 n753 VDD VDD pch W=0.205u L=0.04u 
M_U778/MI14-M_u3 U778/net104 n759 VDD VDD pch W=0.205u L=0.04u 
M_U778/M_u8-M_u3 U778/net30 n757 VDD VDD pch W=0.205u L=0.04u 
M_U778/MI12-M_u3 U778/net108 U778/net104 VDD VDD pch W=0.205u L=0.04u 
M_U778/MU20-M_u3 n747 U778/net28 VDD VDD pch W=0.205u L=0.04u 
M_U778/MI1-M_u3 U778/net32 n758 VDD VDD pch W=0.205u L=0.04u 
M_U778/MI16-M_u3 U778/net64 U778/net24 VDD VDD pch W=0.28u L=0.04u 
M_U778/MI20 U778/net24 U778/net30 U778/net045 VDD pch W=0.205u L=0.04u 
M_U778/M_u2 U778/net045 U778/net32 VDD VDD pch W=0.205u L=0.04u 
M_U779/MI15-M_u2 U779/net19 N367 VSS VSS nch W=0.155u L=0.04u 
M_U779/MI21 n753 N367 U779/net40 VSS nch W=0.155u L=0.04u 
M_U779/MI12 n753 U779/net19 U779/net36 VSS nch W=0.155u L=0.04u 
M_U779/MI20 U779/net40 n761 VSS VSS nch W=0.31u L=0.04u 
M_U779/MI19 U779/net36 n760 VSS VSS nch W=0.155u L=0.04u 
M_U779/MI15-M_u3 U779/net19 N367 VDD VDD pch W=0.205u L=0.04u 
M_U779/MI25 n753 U779/net19 U779/net26 VDD pch W=0.325u L=0.04u 
M_U779/MI24 U779/net26 n761 VDD VDD pch W=0.41u L=0.04u 
M_U779/MI5 n753 N367 U779/net30 VDD pch W=0.325u L=0.04u 
M_U779/MI111 U779/net30 n760 VDD VDD pch W=0.205u L=0.04u 
M_U780/MI15 U780/net29 U780/net21 U780/net041 VSS nch W=0.155u L=0.04u 
M_U780/MU63 U780/net035 U780/net19 VSS VSS nch W=0.155u L=0.04u 
M_U780/MI14 U780/net041 U780/net13 VSS VSS nch W=0.155u L=0.04u 
M_U780/MI42 U780/net25 n763 U780/net035 VSS nch W=0.155u L=0.04u 
M_U780/M_u6-M_u3 U780/net19 U780/net17 U780/net25 VSS nch W=0.155u L=0.04u 
M_U780/MU18-M_u3 U780/net13 U780/net25 U780/net29 VSS nch W=0.155u L=0.04u 
M_U780/MI1-M_u2 n761 U780/net29 VSS VSS nch W=0.155u L=0.04u 
M_U780/MI3-M_u2 U780/net13 n764 VSS VSS nch W=0.155u L=0.04u 
M_U780/MI7-M_u2 U780/net17 n763 VSS VSS nch W=0.155u L=0.04u 
M_U780/MI2-M_u2 U780/net19 n762 VSS VSS nch W=0.155u L=0.04u 
M_U780/MI6-M_u2 U780/net21 U780/net25 VSS VSS nch W=0.155u L=0.04u 
M_U780/MU62 U780/net028 U780/net19 VDD VDD pch W=0.205u L=0.04u 
M_U780/MI8 U780/net25 U780/net17 U780/net028 VDD pch W=0.205u L=0.04u 
M_U780/MI12 U780/net29 U780/net25 U780/net029 VDD pch W=0.205u L=0.04u 
M_U780/MI13 U780/net029 U780/net13 VDD VDD pch W=0.205u L=0.04u 
M_U780/M_u6-M_u2 U780/net19 n763 U780/net25 VDD pch W=0.205u L=0.04u 
M_U780/MU18-M_u2 U780/net13 U780/net21 U780/net29 VDD pch W=0.205u L=0.04u 
M_U780/MI1-M_u3 n761 U780/net29 VDD VDD pch W=0.205u L=0.04u 
M_U780/MI3-M_u3 U780/net13 n764 VDD VDD pch W=0.205u L=0.04u 
M_U780/MI7-M_u3 U780/net17 n763 VDD VDD pch W=0.205u L=0.04u 
M_U780/MI2-M_u3 U780/net19 n762 VDD VDD pch W=0.205u L=0.04u 
M_U780/MI6-M_u3 U780/net21 U780/net25 VDD VDD pch W=0.205u L=0.04u 
M_U781/MU18-M_u2 U781/net24 n768 VSS VSS nch W=0.155u L=0.04u 
M_U781/MI47-M_u2 U781/net74 n766 VSS VSS nch W=0.155u L=0.04u 
M_U781/MI55-M_u2 U781/net72 n765 VSS VSS nch W=0.155u L=0.04u 
M_U781/MI57-M_u2 U781/net76 n765 VSS VSS nch W=0.31u L=0.04u 
M_U781/MI58-M_u2 U781/net044 n767 VSS VSS nch W=0.155u L=0.04u 
M_U781/MI56-M_u2 U781/net052 n766 VSS VSS nch W=0.31u L=0.04u 
M_U781/MI51-M_u3 U781/PG2 n768 n764 VSS nch W=0.22u L=0.04u 
M_U781/MI52-M_u3 U781/net74 U781/net044 U781/PG2 VSS nch W=0.12u L=0.04u 
M_U781/MI49-M_u3 U781/net052 n767 U781/PG1 VSS nch W=0.155u L=0.04u 
M_U781/MI50-M_u3 U781/PG1 U781/net24 n764 VSS nch W=0.155u L=0.04u 
M_U781/MI54-M_u3 U781/net76 n767 U781/PG2 VSS nch W=0.155u L=0.04u 
M_U781/MI48-M_u3 U781/net72 U781/net044 U781/PG1 VSS nch W=0.12u L=0.04u 
M_U781/MU18-M_u3 U781/net24 n768 VDD VDD pch W=0.205u L=0.04u 
M_U781/MI47-M_u3 U781/net74 n766 VDD VDD pch W=0.205u L=0.04u 
M_U781/MI55-M_u3 U781/net72 n765 VDD VDD pch W=0.205u L=0.04u 
M_U781/MI57-M_u3 U781/net76 n765 VDD VDD pch W=0.41u L=0.04u 
M_U781/MI58-M_u3 U781/net044 n767 VDD VDD pch W=0.205u L=0.04u 
M_U781/MI56-M_u3 U781/net052 n766 VDD VDD pch W=0.41u L=0.04u 
M_U781/MI51-M_u2 U781/PG2 U781/net24 n764 VDD pch W=0.205u L=0.04u 
M_U781/MI52-M_u2 U781/net74 n767 U781/PG2 VDD pch W=0.205u L=0.04u 
M_U781/MI49-M_u2 U781/net052 U781/net044 U781/PG1 VDD pch W=0.205u L=0.04u 
M_U781/MI50-M_u2 U781/PG1 n768 n764 VDD pch W=0.29u L=0.04u 
M_U781/MI54-M_u2 U781/net76 U781/net044 U781/PG2 VDD pch W=0.205u L=0.04u 
M_U781/MI48-M_u2 U781/net72 n767 U781/PG1 VDD pch W=0.205u L=0.04u 
M_U782/MI15 U782/net29 U782/net21 U782/net041 VSS nch W=0.155u L=0.04u 
M_U782/MU63 U782/net035 U782/net19 VSS VSS nch W=0.155u L=0.04u 
M_U782/MI14 U782/net041 U782/net13 VSS VSS nch W=0.155u L=0.04u 
M_U782/MI42 U782/net25 n770 U782/net035 VSS nch W=0.155u L=0.04u 
M_U782/M_u6-M_u3 U782/net19 U782/net17 U782/net25 VSS nch W=0.155u L=0.04u 
M_U782/MU18-M_u3 U782/net13 U782/net25 U782/net29 VSS nch W=0.155u L=0.04u 
M_U782/MI1-M_u2 n768 U782/net29 VSS VSS nch W=0.155u L=0.04u 
M_U782/MI3-M_u2 U782/net13 n771 VSS VSS nch W=0.155u L=0.04u 
M_U782/MI7-M_u2 U782/net17 n770 VSS VSS nch W=0.155u L=0.04u 
M_U782/MI2-M_u2 U782/net19 n769 VSS VSS nch W=0.155u L=0.04u 
M_U782/MI6-M_u2 U782/net21 U782/net25 VSS VSS nch W=0.155u L=0.04u 
M_U782/MU62 U782/net028 U782/net19 VDD VDD pch W=0.205u L=0.04u 
M_U782/MI8 U782/net25 U782/net17 U782/net028 VDD pch W=0.205u L=0.04u 
M_U782/MI12 U782/net29 U782/net25 U782/net029 VDD pch W=0.205u L=0.04u 
M_U782/MI13 U782/net029 U782/net13 VDD VDD pch W=0.205u L=0.04u 
M_U782/M_u6-M_u2 U782/net19 n770 U782/net25 VDD pch W=0.205u L=0.04u 
M_U782/MU18-M_u2 U782/net13 U782/net21 U782/net29 VDD pch W=0.205u L=0.04u 
M_U782/MI1-M_u3 n768 U782/net29 VDD VDD pch W=0.205u L=0.04u 
M_U782/MI3-M_u3 U782/net13 n771 VDD VDD pch W=0.205u L=0.04u 
M_U782/MI7-M_u3 U782/net17 n770 VDD VDD pch W=0.205u L=0.04u 
M_U782/MI2-M_u3 U782/net19 n769 VDD VDD pch W=0.205u L=0.04u 
M_U782/MI6-M_u3 U782/net21 U782/net25 VDD VDD pch W=0.205u L=0.04u 
M_U783/MI1-M_u4 n771 n772 VSS VSS nch W=0.155u L=0.04u 
M_U783/MI1-M_u3 n771 n773 VSS VSS nch W=0.155u L=0.04u 
M_U783/MI1-M_u1 U783/XI1-net8 n773 VDD VDD pch W=0.205u L=0.04u 
M_U783/MI1-M_u2 n771 n772 U783/XI1-net8 VDD pch W=0.205u L=0.04u 
M_U784/MI2 n770 n772 U784/net27 VSS nch W=0.155u L=0.04u 
M_U784/MI10 U784/net27 n774 VSS VSS nch W=0.155u L=0.04u 
M_U784/MI11 n770 n775 VSS VSS nch W=0.155u L=0.04u 
M_U784/MI8 n770 n774 U784/net13 VDD pch W=0.205u L=0.04u 
M_U784/M_u2 U784/net13 n775 VDD VDD pch W=0.205u L=0.04u 
M_U784/MI9 n770 n772 U784/net13 VDD pch W=0.205u L=0.04u 
M_U785/MI2 n762 n776 U785/net27 VSS nch W=0.155u L=0.04u 
M_U785/MI10 U785/net27 n772 VSS VSS nch W=0.155u L=0.04u 
M_U785/MI11 n762 n777 VSS VSS nch W=0.155u L=0.04u 
M_U785/MI8 n762 n772 U785/net13 VDD pch W=0.205u L=0.04u 
M_U785/M_u2 U785/net13 n777 VDD VDD pch W=0.205u L=0.04u 
M_U785/MI9 n762 n776 U785/net13 VDD pch W=0.205u L=0.04u 
M_U786/MI15 U786/net29 U786/net21 U786/net041 VSS nch W=0.155u L=0.04u 
M_U786/MU63 U786/net035 U786/net19 VSS VSS nch W=0.155u L=0.04u 
M_U786/MI14 U786/net041 U786/net13 VSS VSS nch W=0.155u L=0.04u 
M_U786/MI42 U786/net25 n763 U786/net035 VSS nch W=0.155u L=0.04u 
M_U786/M_u6-M_u3 U786/net19 U786/net17 U786/net25 VSS nch W=0.155u L=0.04u 
M_U786/MU18-M_u3 U786/net13 U786/net25 U786/net29 VSS nch W=0.155u L=0.04u 
M_U786/MI1-M_u2 n760 U786/net29 VSS VSS nch W=0.155u L=0.04u 
M_U786/MI3-M_u2 U786/net13 n779 VSS VSS nch W=0.155u L=0.04u 
M_U786/MI7-M_u2 U786/net17 n763 VSS VSS nch W=0.155u L=0.04u 
M_U786/MI2-M_u2 U786/net19 n778 VSS VSS nch W=0.155u L=0.04u 
M_U786/MI6-M_u2 U786/net21 U786/net25 VSS VSS nch W=0.155u L=0.04u 
M_U786/MU62 U786/net028 U786/net19 VDD VDD pch W=0.205u L=0.04u 
M_U786/MI8 U786/net25 U786/net17 U786/net028 VDD pch W=0.205u L=0.04u 
M_U786/MI12 U786/net29 U786/net25 U786/net029 VDD pch W=0.205u L=0.04u 
M_U786/MI13 U786/net029 U786/net13 VDD VDD pch W=0.205u L=0.04u 
M_U786/M_u6-M_u2 U786/net19 n763 U786/net25 VDD pch W=0.205u L=0.04u 
M_U786/MU18-M_u2 U786/net13 U786/net21 U786/net29 VDD pch W=0.205u L=0.04u 
M_U786/MI1-M_u3 n760 U786/net29 VDD VDD pch W=0.205u L=0.04u 
M_U786/MI3-M_u3 U786/net13 n779 VDD VDD pch W=0.205u L=0.04u 
M_U786/MI7-M_u3 U786/net17 n763 VDD VDD pch W=0.205u L=0.04u 
M_U786/MI2-M_u3 U786/net19 n778 VDD VDD pch W=0.205u L=0.04u 
M_U786/MI6-M_u3 U786/net21 U786/net25 VDD VDD pch W=0.205u L=0.04u 
M_U787/MU18-M_u2 U787/net24 n781 VSS VSS nch W=0.155u L=0.04u 
M_U787/MI47-M_u2 U787/net74 n766 VSS VSS nch W=0.155u L=0.04u 
M_U787/MI55-M_u2 U787/net72 n765 VSS VSS nch W=0.155u L=0.04u 
M_U787/MI57-M_u2 U787/net76 n765 VSS VSS nch W=0.31u L=0.04u 
M_U787/MI58-M_u2 U787/net044 n780 VSS VSS nch W=0.155u L=0.04u 
M_U787/MI56-M_u2 U787/net052 n766 VSS VSS nch W=0.31u L=0.04u 
M_U787/MI51-M_u3 U787/PG2 n781 n779 VSS nch W=0.22u L=0.04u 
M_U787/MI52-M_u3 U787/net74 U787/net044 U787/PG2 VSS nch W=0.12u L=0.04u 
M_U787/MI49-M_u3 U787/net052 n780 U787/PG1 VSS nch W=0.155u L=0.04u 
M_U787/MI50-M_u3 U787/PG1 U787/net24 n779 VSS nch W=0.155u L=0.04u 
M_U787/MI54-M_u3 U787/net76 n780 U787/PG2 VSS nch W=0.155u L=0.04u 
M_U787/MI48-M_u3 U787/net72 U787/net044 U787/PG1 VSS nch W=0.12u L=0.04u 
M_U787/MU18-M_u3 U787/net24 n781 VDD VDD pch W=0.205u L=0.04u 
M_U787/MI47-M_u3 U787/net74 n766 VDD VDD pch W=0.205u L=0.04u 
M_U787/MI55-M_u3 U787/net72 n765 VDD VDD pch W=0.205u L=0.04u 
M_U787/MI57-M_u3 U787/net76 n765 VDD VDD pch W=0.41u L=0.04u 
M_U787/MI58-M_u3 U787/net044 n780 VDD VDD pch W=0.205u L=0.04u 
M_U787/MI56-M_u3 U787/net052 n766 VDD VDD pch W=0.41u L=0.04u 
M_U787/MI51-M_u2 U787/PG2 U787/net24 n779 VDD pch W=0.205u L=0.04u 
M_U787/MI52-M_u2 U787/net74 n780 U787/PG2 VDD pch W=0.205u L=0.04u 
M_U787/MI49-M_u2 U787/net052 U787/net044 U787/PG1 VDD pch W=0.205u L=0.04u 
M_U787/MI50-M_u2 U787/PG1 n781 n779 VDD pch W=0.29u L=0.04u 
M_U787/MI54-M_u2 U787/net76 U787/net044 U787/PG2 VDD pch W=0.205u L=0.04u 
M_U787/MI48-M_u2 U787/net72 n780 U787/PG1 VDD pch W=0.205u L=0.04u 
M_U788/M_u4 n781 n784 VSS VSS nch W=0.155u L=0.04u 
M_U788/MI2 n781 n783 VSS VSS nch W=0.155u L=0.04u 
M_U788/MI3 n781 n782 VSS VSS nch W=0.155u L=0.04u 
M_U788/M_u1 U788/net25 n784 VDD VDD pch W=0.41u L=0.04u 
M_U788/MI0 U788/net28 n783 U788/net25 VDD pch W=0.41u L=0.04u 
M_U788/MI1 n781 n782 U788/net28 VDD pch W=0.41u L=0.04u 
M_U789/MI9 n782 n785 U789/net10 VSS nch W=0.155u L=0.04u 
M_U789/M_u4 U789/net10 n788 VSS VSS nch W=0.155u L=0.04u 
M_U789/MI8 n782 n786 U789/net10 VSS nch W=0.155u L=0.04u 
M_U789/MI7 U789/net10 n787 VSS VSS nch W=0.155u L=0.04u 
M_U789/MU24 U789/net30 n788 VDD VDD pch W=0.205u L=0.04u 
M_U789/MI6 n782 n785 U789/net24 VDD pch W=0.205u L=0.04u 
M_U789/MI5 U789/net24 n786 VDD VDD pch W=0.205u L=0.04u 
M_U789/MI4 n782 n787 U789/net30 VDD pch W=0.205u L=0.04u 
M_U790/MI0-M_u3 U790/net4 n789 U790/net14 VSS nch W=0.155u L=0.04u 
M_U790/M_u7-M_u3 U790/net6 U790/net10 U790/net14 VSS nch W=0.17u L=0.04u 
M_U790/M_u2-M_u2 U790/net4 n790 VSS VSS nch W=0.155u L=0.04u 
M_U790/M_u5-M_u2 U790/net6 U790/net4 VSS VSS nch W=0.17u L=0.04u 
M_U790/M_u4-M_u2 n766 U790/net14 VSS VSS nch W=0.155u L=0.04u 
M_U790/M_u8-M_u2 U790/net10 n789 VSS VSS nch W=0.155u L=0.04u 
M_U790/MI0-M_u2 U790/net4 U790/net10 U790/net14 VDD pch W=0.255u L=0.04u 
M_U790/M_u7-M_u2 U790/net6 n789 U790/net14 VDD pch W=0.28u L=0.04u 
M_U790/M_u2-M_u3 U790/net4 n790 VDD VDD pch W=0.205u L=0.04u 
M_U790/M_u5-M_u3 U790/net6 U790/net4 VDD VDD pch W=0.24u L=0.04u 
M_U790/M_u4-M_u3 n766 U790/net14 VDD VDD pch W=0.205u L=0.04u 
M_U790/M_u8-M_u3 U790/net10 n789 VDD VDD pch W=0.205u L=0.04u 
M_U791/MI12 U791/net32 n789 VSS VSS nch W=0.155u L=0.04u 
M_U791/MI11 U791/net59 n791 U791/net32 VSS nch W=0.155u L=0.04u 
M_U791/MI6 U791/net59 n772 VSS VSS nch W=0.155u L=0.04u 
M_U791/MI8-M_u2 n765 U791/net59 VSS VSS nch W=0.155u L=0.04u 
M_U791/MI8-M_u3 n765 U791/net59 VDD VDD pch W=0.2u L=0.04u 
M_U791/MI10 U791/net59 n791 U791/net22 VDD pch W=0.205u L=0.04u 
M_U791/MI9 U791/net59 n789 U791/net22 VDD pch W=0.205u L=0.04u 
M_U791/M_u2 U791/net22 n772 VDD VDD pch W=0.2u L=0.04u 
M_U792/M_u6-M_u3 U792/net4 U792/net10 U792/net14 VSS nch W=0.155u L=0.04u 
M_U792/MI3-M_u3 U792/net6 n774 U792/net14 VSS nch W=0.155u L=0.04u 
M_U792/MI1-M_u2 U792/net4 n792 VSS VSS nch W=0.155u L=0.04u 
M_U792/M_u5-M_u2 U792/net6 U792/net4 VSS VSS nch W=0.155u L=0.04u 
M_U792/M_u4-M_u2 n763 U792/net14 VSS VSS nch W=0.155u L=0.04u 
M_U792/MI2-M_u2 U792/net10 n774 VSS VSS nch W=0.155u L=0.04u 
M_U792/M_u6-M_u2 U792/net4 n774 U792/net14 VDD pch W=0.205u L=0.04u 
M_U792/MI3-M_u2 U792/net6 U792/net10 U792/net14 VDD pch W=0.205u L=0.04u 
M_U792/MI1-M_u3 U792/net4 n792 VDD VDD pch W=0.205u L=0.04u 
M_U792/M_u5-M_u3 U792/net6 U792/net4 VDD VDD pch W=0.205u L=0.04u 
M_U792/M_u4-M_u3 n763 U792/net14 VDD VDD pch W=0.205u L=0.04u 
M_U792/MI2-M_u3 U792/net10 n774 VDD VDD pch W=0.205u L=0.04u 
M_U793/MI15 U793/net29 U793/net21 U793/net041 VSS nch W=0.155u L=0.04u 
M_U793/MU63 U793/net035 U793/net19 VSS VSS nch W=0.155u L=0.04u 
M_U793/MI14 U793/net041 U793/net13 VSS VSS nch W=0.155u L=0.04u 
M_U793/MI42 U793/net25 n775 U793/net035 VSS nch W=0.155u L=0.04u 
M_U793/M_u6-M_u3 U793/net19 U793/net17 U793/net25 VSS nch W=0.155u L=0.04u 
M_U793/MU18-M_u3 U793/net13 U793/net25 U793/net29 VSS nch W=0.155u L=0.04u 
M_U793/MI1-M_u2 n778 U793/net29 VSS VSS nch W=0.155u L=0.04u 
M_U793/MI3-M_u2 U793/net13 n767 VSS VSS nch W=0.155u L=0.04u 
M_U793/MI7-M_u2 U793/net17 n775 VSS VSS nch W=0.155u L=0.04u 
M_U793/MI2-M_u2 U793/net19 n773 VSS VSS nch W=0.155u L=0.04u 
M_U793/MI6-M_u2 U793/net21 U793/net25 VSS VSS nch W=0.155u L=0.04u 
M_U793/MU62 U793/net028 U793/net19 VDD VDD pch W=0.205u L=0.04u 
M_U793/MI8 U793/net25 U793/net17 U793/net028 VDD pch W=0.205u L=0.04u 
M_U793/MI12 U793/net29 U793/net25 U793/net029 VDD pch W=0.205u L=0.04u 
M_U793/MI13 U793/net029 U793/net13 VDD VDD pch W=0.205u L=0.04u 
M_U793/M_u6-M_u2 U793/net19 n775 U793/net25 VDD pch W=0.205u L=0.04u 
M_U793/MU18-M_u2 U793/net13 U793/net21 U793/net29 VDD pch W=0.205u L=0.04u 
M_U793/MI1-M_u3 n778 U793/net29 VDD VDD pch W=0.205u L=0.04u 
M_U793/MI3-M_u3 U793/net13 n767 VDD VDD pch W=0.205u L=0.04u 
M_U793/MI7-M_u3 U793/net17 n775 VDD VDD pch W=0.205u L=0.04u 
M_U793/MI2-M_u3 U793/net19 n773 VDD VDD pch W=0.205u L=0.04u 
M_U793/MI6-M_u3 U793/net21 U793/net25 VDD VDD pch W=0.205u L=0.04u 
M_U794/MI15 U794/net29 U794/net21 U794/net041 VSS nch W=0.155u L=0.04u 
M_U794/MU63 U794/net035 U794/net19 VSS VSS nch W=0.155u L=0.04u 
M_U794/MI14 U794/net041 U794/net13 VSS VSS nch W=0.155u L=0.04u 
M_U794/MI42 U794/net25 n793 U794/net035 VSS nch W=0.155u L=0.04u 
M_U794/M_u6-M_u3 U794/net19 U794/net17 U794/net25 VSS nch W=0.155u L=0.04u 
M_U794/MU18-M_u3 U794/net13 U794/net25 U794/net29 VSS nch W=0.155u L=0.04u 
M_U794/MI1-M_u2 n759 U794/net29 VSS VSS nch W=0.155u L=0.04u 
M_U794/MI3-M_u2 U794/net13 n794 VSS VSS nch W=0.155u L=0.04u 
M_U794/MI7-M_u2 U794/net17 n793 VSS VSS nch W=0.155u L=0.04u 
M_U794/MI2-M_u2 U794/net19 n755 VSS VSS nch W=0.155u L=0.04u 
M_U794/MI6-M_u2 U794/net21 U794/net25 VSS VSS nch W=0.155u L=0.04u 
M_U794/MU62 U794/net028 U794/net19 VDD VDD pch W=0.205u L=0.04u 
M_U794/MI8 U794/net25 U794/net17 U794/net028 VDD pch W=0.205u L=0.04u 
M_U794/MI12 U794/net29 U794/net25 U794/net029 VDD pch W=0.205u L=0.04u 
M_U794/MI13 U794/net029 U794/net13 VDD VDD pch W=0.205u L=0.04u 
M_U794/M_u6-M_u2 U794/net19 n793 U794/net25 VDD pch W=0.205u L=0.04u 
M_U794/MU18-M_u2 U794/net13 U794/net21 U794/net29 VDD pch W=0.205u L=0.04u 
M_U794/MI1-M_u3 n759 U794/net29 VDD VDD pch W=0.205u L=0.04u 
M_U794/MI3-M_u3 U794/net13 n794 VDD VDD pch W=0.205u L=0.04u 
M_U794/MI7-M_u3 U794/net17 n793 VDD VDD pch W=0.205u L=0.04u 
M_U794/MI2-M_u3 U794/net19 n755 VDD VDD pch W=0.205u L=0.04u 
M_U794/MI6-M_u3 U794/net21 U794/net25 VDD VDD pch W=0.205u L=0.04u 
M_U795/MI15-M_u2 U795/net19 n796 VSS VSS nch W=0.155u L=0.04u 
M_U795/MI21 n758 n796 U795/net40 VSS nch W=0.155u L=0.04u 
M_U795/MI12 n758 U795/net19 U795/net36 VSS nch W=0.155u L=0.04u 
M_U795/MI20 U795/net40 n756 VSS VSS nch W=0.31u L=0.04u 
M_U795/MI19 U795/net36 n795 VSS VSS nch W=0.155u L=0.04u 
M_U795/MI15-M_u3 U795/net19 n796 VDD VDD pch W=0.205u L=0.04u 
M_U795/MI25 n758 U795/net19 U795/net26 VDD pch W=0.325u L=0.04u 
M_U795/MI24 U795/net26 n756 VDD VDD pch W=0.41u L=0.04u 
M_U795/MI5 n758 n796 U795/net30 VDD pch W=0.325u L=0.04u 
M_U795/MI111 U795/net30 n795 VDD VDD pch W=0.205u L=0.04u 
M_U796/M_u2 n757 n750 VSS VSS nch W=0.135u L=0.04u 
M_U796/M_u1 n757 n750 VDD VDD pch W=0.205u L=0.04u 
M_U797/M_u6-M_u3 U797/net4 U797/net10 U797/net14 VSS nch W=0.155u L=0.04u 
M_U797/MI3-M_u3 U797/net6 n797 U797/net14 VSS nch W=0.155u L=0.04u 
M_U797/MI1-M_u2 U797/net4 n798 VSS VSS nch W=0.155u L=0.04u 
M_U797/M_u5-M_u2 U797/net6 U797/net4 VSS VSS nch W=0.155u L=0.04u 
M_U797/M_u4-M_u2 n750 U797/net14 VSS VSS nch W=0.155u L=0.04u 
M_U797/MI2-M_u2 U797/net10 n797 VSS VSS nch W=0.155u L=0.04u 
M_U797/M_u6-M_u2 U797/net4 n797 U797/net14 VDD pch W=0.205u L=0.04u 
M_U797/MI3-M_u2 U797/net6 U797/net10 U797/net14 VDD pch W=0.205u L=0.04u 
M_U797/MI1-M_u3 U797/net4 n798 VDD VDD pch W=0.205u L=0.04u 
M_U797/M_u5-M_u3 U797/net6 U797/net4 VDD VDD pch W=0.205u L=0.04u 
M_U797/M_u4-M_u3 n750 U797/net14 VDD VDD pch W=0.205u L=0.04u 
M_U797/MI2-M_u3 U797/net10 n797 VDD VDD pch W=0.205u L=0.04u 
M_U798/MI15-M_u2 U798/net19 n801 VSS VSS nch W=0.155u L=0.04u 
M_U798/MI21 N1394 n801 U798/net40 VSS nch W=0.155u L=0.04u 
M_U798/MI12 N1394 U798/net19 U798/net36 VSS nch W=0.155u L=0.04u 
M_U798/MI20 U798/net40 n800 VSS VSS nch W=0.31u L=0.04u 
M_U798/MI19 U798/net36 n799 VSS VSS nch W=0.155u L=0.04u 
M_U798/MI15-M_u3 U798/net19 n801 VDD VDD pch W=0.205u L=0.04u 
M_U798/MI25 N1394 U798/net19 U798/net26 VDD pch W=0.325u L=0.04u 
M_U798/MI24 U798/net26 n800 VDD VDD pch W=0.41u L=0.04u 
M_U798/MI5 N1394 n801 U798/net30 VDD pch W=0.325u L=0.04u 
M_U798/MI111 U798/net30 n799 VDD VDD pch W=0.205u L=0.04u 
M_U799/MI2 n801 n802 U799/net27 VSS nch W=0.155u L=0.04u 
M_U799/MI10 U799/net27 n803 VSS VSS nch W=0.155u L=0.04u 
M_U799/MI11 n801 n804 VSS VSS nch W=0.155u L=0.04u 
M_U799/MI8 n801 n803 U799/net13 VDD pch W=0.205u L=0.04u 
M_U799/M_u2 U799/net13 n804 VDD VDD pch W=0.205u L=0.04u 
M_U799/MI9 n801 n802 U799/net13 VDD pch W=0.205u L=0.04u 
M_U800/MI15-M_u3 U800/net28 U800/net20 U800/net64 VSS nch W=0.155u L=0.04u 
M_U800/MI8-M_u3 U800/net24 U800/net30 U800/net32 VSS nch W=0.155u L=0.04u 
M_U800/MI17-M_u3 U800/net28 U800/net40 U800/net24 VSS nch W=0.155u L=0.04u 
M_U800/MI11-M_u3 U800/net40 n808 U800/net108 VSS nch W=0.155u L=0.04u 
M_U800/MI9-M_u3 U800/net40 U800/net106 U800/net104 VSS nch W=0.155u L=0.04u 
M_U800/MI21 U800/net24 n805 U800/net050 VSS nch W=0.155u L=0.04u 
M_U800/MI22 U800/net050 U800/net32 VSS VSS nch W=0.155u L=0.04u 
M_U800/MI19-M_u2 U800/net20 U800/net40 VSS VSS nch W=0.155u L=0.04u 
M_U800/MI13-M_u2 U800/net106 n808 VSS VSS nch W=0.155u L=0.04u 
M_U800/MI14-M_u2 U800/net104 n807 VSS VSS nch W=0.155u L=0.04u 
M_U800/M_u8-M_u2 U800/net30 n805 VSS VSS nch W=0.155u L=0.04u 
M_U800/MI12-M_u2 U800/net108 U800/net104 VSS VSS nch W=0.155u L=0.04u 
M_U800/MU20-M_u2 n800 U800/net28 VSS VSS nch W=0.155u L=0.04u 
M_U800/MI1-M_u2 U800/net32 n806 VSS VSS nch W=0.155u L=0.04u 
M_U800/MI16-M_u2 U800/net64 U800/net24 VSS VSS nch W=0.2u L=0.04u 
M_U800/MI15-M_u2 U800/net28 U800/net40 U800/net64 VDD pch W=0.205u L=0.04u 
M_U800/MI8-M_u2 U800/net24 n805 U800/net32 VDD pch W=0.205u L=0.04u 
M_U800/MI17-M_u2 U800/net28 U800/net20 U800/net24 VDD pch W=0.205u L=0.04u 
M_U800/MI11-M_u2 U800/net40 U800/net106 U800/net108 VDD pch W=0.205u L=0.04u 
M_U800/MI9-M_u2 U800/net40 n808 U800/net104 VDD pch W=0.205u L=0.04u 
M_U800/MI19-M_u3 U800/net20 U800/net40 VDD VDD pch W=0.205u L=0.04u 
M_U800/MI13-M_u3 U800/net106 n808 VDD VDD pch W=0.205u L=0.04u 
M_U800/MI14-M_u3 U800/net104 n807 VDD VDD pch W=0.205u L=0.04u 
M_U800/M_u8-M_u3 U800/net30 n805 VDD VDD pch W=0.205u L=0.04u 
M_U800/MI12-M_u3 U800/net108 U800/net104 VDD VDD pch W=0.205u L=0.04u 
M_U800/MU20-M_u3 n800 U800/net28 VDD VDD pch W=0.205u L=0.04u 
M_U800/MI1-M_u3 U800/net32 n806 VDD VDD pch W=0.205u L=0.04u 
M_U800/MI16-M_u3 U800/net64 U800/net24 VDD VDD pch W=0.28u L=0.04u 
M_U800/MI20 U800/net24 U800/net30 U800/net045 VDD pch W=0.205u L=0.04u 
M_U800/M_u2 U800/net045 U800/net32 VDD VDD pch W=0.205u L=0.04u 
M_U801/MI15-M_u2 U801/net19 n811 VSS VSS nch W=0.155u L=0.04u 
M_U801/MI21 n806 n811 U801/net40 VSS nch W=0.155u L=0.04u 
M_U801/MI12 n806 U801/net19 U801/net36 VSS nch W=0.155u L=0.04u 
M_U801/MI20 U801/net40 n810 VSS VSS nch W=0.31u L=0.04u 
M_U801/MI19 U801/net36 n809 VSS VSS nch W=0.155u L=0.04u 
M_U801/MI15-M_u3 U801/net19 n811 VDD VDD pch W=0.205u L=0.04u 
M_U801/MI25 n806 U801/net19 U801/net26 VDD pch W=0.325u L=0.04u 
M_U801/MI24 U801/net26 n810 VDD VDD pch W=0.41u L=0.04u 
M_U801/MI5 n806 n811 U801/net30 VDD pch W=0.325u L=0.04u 
M_U801/MI111 U801/net30 n809 VDD VDD pch W=0.205u L=0.04u 
M_U802/M_u6-M_u3 U802/net4 U802/net10 U802/net14 VSS nch W=0.155u L=0.04u 
M_U802/MI3-M_u3 U802/net6 n812 U802/net14 VSS nch W=0.155u L=0.04u 
M_U802/MI1-M_u2 U802/net4 n813 VSS VSS nch W=0.155u L=0.04u 
M_U802/M_u5-M_u2 U802/net6 U802/net4 VSS VSS nch W=0.155u L=0.04u 
M_U802/M_u4-M_u2 n810 U802/net14 VSS VSS nch W=0.155u L=0.04u 
M_U802/MI2-M_u2 U802/net10 n812 VSS VSS nch W=0.155u L=0.04u 
M_U802/M_u6-M_u2 U802/net4 n812 U802/net14 VDD pch W=0.205u L=0.04u 
M_U802/MI3-M_u2 U802/net6 U802/net10 U802/net14 VDD pch W=0.205u L=0.04u 
M_U802/MI1-M_u3 U802/net4 n813 VDD VDD pch W=0.205u L=0.04u 
M_U802/M_u5-M_u3 U802/net6 U802/net4 VDD VDD pch W=0.205u L=0.04u 
M_U802/M_u4-M_u3 n810 U802/net14 VDD VDD pch W=0.205u L=0.04u 
M_U802/MI2-M_u3 U802/net10 n812 VDD VDD pch W=0.205u L=0.04u 
M_U803/MI1-M_u4 n809 n814 VSS VSS nch W=0.155u L=0.04u 
M_U803/MI1-M_u3 n809 n815 VSS VSS nch W=0.155u L=0.04u 
M_U803/MI1-M_u1 U803/XI1-net8 n815 VDD VDD pch W=0.205u L=0.04u 
M_U803/MI1-M_u2 n809 n814 U803/XI1-net8 VDD pch W=0.205u L=0.04u 
M_U804/MI15-M_u2 U804/net19 n817 VSS VSS nch W=0.155u L=0.04u 