.SUBCKT s13207 CK g1 g10 g1000 g8625 g1008 g8630 g1016 g1029 g1080 g11 g1193 g1194 g1195 g1196 g1197 g1198 g1201 g1202 g1203 g1205 g1206 g1234 g1245 g1553 g1554 g1409 g1783 g1798 g1804 g1810 g1817 g1824 g1829 g1870 g1871 g1894 g1911 g1944 g1460 g21 g22 g23 g24 g25 g26 g1254 g27 g28 g2844 g2888 g29 g30 g3096 g31 g3130 g3159 g3191 g32 g37 g1461 g3854 g3856 g3857 g41 g42 g4267 g43 g4316 g4370 g4371 g4372 g4373 g44 g45 g4655 g3504 g3528 g3505 g3555 g3516 g49 g4302 g5571 g13 g16 g20 g33 g38 g173 g1389 g6224 g7731 g9 g633 g634 g635 g1034 g645 g647 g648 g1251 g1250 g7904 g6056 g6850 I8024 g690 g694 g698 g702 g7048 g8663 g6745 g722 g723 g7283 g7284 g7285 g7286 g7287 g7288 g7289 g7290 g7291 g7292 g7293 g7295 g7071 g7423 g7424 g7425 g7248 g751 g7252 g752 g753 g754 g755 g756 g757 g7322 g781 g888 g786 g795 g9132 g8661 g8872 g8958 g6952 g9261 g929 g9264 g9267 g9282 g9285 g9288 g9291 g9294 g9363 g941 g955 g962 VDD VSS 
M1 g7734 n242 VSS VSS nmos W=0.31u L=0.04u
M2 g7734 n242 VDD VDD pmos W=0.41u L=0.04u
M3 g3862 g1260 VSS VSS nmos W=0.31u L=0.04u
M4 g3862 g1260 VDD VDD pmos W=0.41u L=0.04u
M5 g4652 g1158 VSS VSS nmos W=0.31u L=0.04u
M6 g4652 g1158 VDD VDD pmos W=0.41u L=0.04u
M7 g3863 g1260 VSS VSS nmos W=0.31u L=0.04u
M8 g3863 g1260 VDD VDD pmos W=0.41u L=0.04u
M9 g4666 g1252 VSS VSS nmos W=0.31u L=0.04u
M10 g4666 g1252 VDD VDD pmos W=0.41u L=0.04u
M11 g4667 g1252 VSS VSS nmos W=0.31u L=0.04u
M12 g4667 g1252 VDD VDD pmos W=0.41u L=0.04u
M13 g7760 g815 VSS VSS nmos W=0.31u L=0.04u
M14 g7760 g815 VDD VDD pmos W=0.41u L=0.04u
M15 g3832 g158 VSS VSS nmos W=0.31u L=0.04u
M16 g3832 g158 VDD VDD pmos W=0.41u L=0.04u
M17 g5171 g1034 VSS VSS nmos W=0.31u L=0.04u
M18 g5171 g1034 VDD VDD pmos W=0.41u L=0.04u
M19 g3858 g1260 VSS VSS nmos W=0.31u L=0.04u
M20 g3858 g1260 VDD VDD pmos W=0.41u L=0.04u
M21 g2647 I5679 VSS VSS nmos W=0.31u L=0.04u
M22 g2647 I5679 VDD VDD pmos W=0.41u L=0.04u
M23 g5153 I8986 VSS VSS nmos W=0.31u L=0.04u
M24 g5153 I8986 VDD VDD pmos W=0.41u L=0.04u
M25 g5150 g2925 VSS VSS nmos W=0.31u L=0.04u
M26 g5150 g2925 VDD VDD pmos W=0.41u L=0.04u
M27 g5159 I5908 VSS VSS nmos W=0.31u L=0.04u
M28 g5159 I5908 VDD VDD pmos W=0.41u L=0.04u
M29 g2654 I6446 VSS VSS nmos W=0.31u L=0.04u
M30 g2654 I6446 VDD VDD pmos W=0.41u L=0.04u
M31 g2671 I5795 VSS VSS nmos W=0.31u L=0.04u
M32 g2671 I5795 VDD VDD pmos W=0.41u L=0.04u
M33 g5148 I8983 VSS VSS nmos W=0.31u L=0.04u
M34 g5148 I8983 VDD VDD pmos W=0.41u L=0.04u
M35 g5149 I9573 VSS VSS nmos W=0.31u L=0.04u
M36 g5149 I9573 VDD VDD pmos W=0.41u L=0.04u
M37 g5158 I5960 VSS VSS nmos W=0.31u L=0.04u
M38 g5158 I5960 VDD VDD pmos W=0.41u L=0.04u
M39 g4662 I8901 VSS VSS nmos W=0.31u L=0.04u
M40 g4662 I8901 VDD VDD pmos W=0.41u L=0.04u
M41 g5151 I9579 VSS VSS nmos W=0.31u L=0.04u
M42 g5151 I9579 VDD VDD pmos W=0.41u L=0.04u
M43 g6389 n231 VSS VSS nmos W=0.31u L=0.04u
M44 g6389 n231 VDD VDD pmos W=0.41u L=0.04u
M45 g5152 I6245 VSS VSS nmos W=0.31u L=0.04u
M46 g5152 I6245 VDD VDD pmos W=0.41u L=0.04u
M47 g6390 n232 VSS VSS nmos W=0.31u L=0.04u
M48 g6390 n232 VDD VDD pmos W=0.41u L=0.04u
M49 g1235 n225 VSS VSS nmos W=0.31u L=0.04u
M50 g1235 n225 VDD VDD pmos W=0.41u L=0.04u
M51 g5145 I9561 VSS VSS nmos W=0.31u L=0.04u
M52 g5145 I9561 VDD VDD pmos W=0.41u L=0.04u
M53 g6388 n230 VSS VSS nmos W=0.31u L=0.04u
M54 g6388 n230 VDD VDD pmos W=0.41u L=0.04u
M55 g5157 g2969 VSS VSS nmos W=0.31u L=0.04u
M56 g5157 g2969 VDD VDD pmos W=0.41u L=0.04u
M57 g2652 n240 VSS VSS nmos W=0.31u L=0.04u
M58 g2652 n240 VDD VDD pmos W=0.41u L=0.04u
M59 g5156 I6220 VSS VSS nmos W=0.31u L=0.04u
M60 g5156 I6220 VDD VDD pmos W=0.41u L=0.04u
M61 g6387 n229 VSS VSS nmos W=0.31u L=0.04u
M62 g6387 n229 VDD VDD pmos W=0.41u L=0.04u
M63 g2673 I5812 VSS VSS nmos W=0.31u L=0.04u
M64 g2673 I5812 VDD VDD pmos W=0.41u L=0.04u
M65 g2661 g2528 VSS VSS nmos W=0.31u L=0.04u
M66 g2661 g2528 VDD VDD pmos W=0.41u L=0.04u
M67 g6375 n228 VSS VSS nmos W=0.31u L=0.04u
M68 g6375 n228 VDD VDD pmos W=0.41u L=0.04u
M69 g5147 g2953 VSS VSS nmos W=0.31u L=0.04u
M70 g5147 g2953 VDD VDD pmos W=0.41u L=0.04u
M71 g6374 n227 VSS VSS nmos W=0.31u L=0.04u
M72 g6374 n227 VDD VDD pmos W=0.41u L=0.04u
M73 g5154 I6081 VSS VSS nmos W=0.31u L=0.04u
M74 g5154 I6081 VDD VDD pmos W=0.41u L=0.04u
M75 g5161 I6039 VSS VSS nmos W=0.31u L=0.04u
M76 g5161 I6039 VDD VDD pmos W=0.41u L=0.04u
M77 g2663 I5879 VSS VSS nmos W=0.31u L=0.04u
M78 g2663 I5879 VDD VDD pmos W=0.41u L=0.04u
M79 g5155 I6154 VSS VSS nmos W=0.31u L=0.04u
M80 g5155 I6154 VDD VDD pmos W=0.41u L=0.04u
M81 g5160 I6000 VSS VSS nmos W=0.31u L=0.04u
M82 g5160 I6000 VDD VDD pmos W=0.41u L=0.04u
M83 g6393 n234 VSS VSS nmos W=0.31u L=0.04u
M84 g6393 n234 VDD VDD pmos W=0.41u L=0.04u
M85 g6373 n226 VSS VSS nmos W=0.31u L=0.04u
M86 g6373 n226 VDD VDD pmos W=0.41u L=0.04u
M87 g2660 I5775 VSS VSS nmos W=0.31u L=0.04u
M88 g2660 I5775 VDD VDD pmos W=0.41u L=0.04u
M89 g2664 I6463 VSS VSS nmos W=0.31u L=0.04u
M90 g2664 I6463 VDD VDD pmos W=0.41u L=0.04u
M91 g6382 N367 VSS VSS nmos W=0.31u L=0.04u
M92 g6382 N367 VDD VDD pmos W=0.41u L=0.04u
M93 g7111 n1101 VSS VSS nmos W=0.31u L=0.04u
M94 g7111 n1101 VDD VDD pmos W=0.41u L=0.04u
M95 g4656 n1036 VSS VSS nmos W=0.31u L=0.04u
M96 g4656 n1036 VDD VDD pmos W=0.41u L=0.04u
M97 g4665 n914 VSS VSS nmos W=0.31u L=0.04u
M98 g4665 n914 VDD VDD pmos W=0.41u L=0.04u
M99 g7767 n1062 VSS VSS nmos W=0.31u L=0.04u
M100 g7767 n1062 VDD VDD pmos W=0.41u L=0.04u
M101 g5185 N304 VSS VSS nmos W=0.31u L=0.04u
M102 g5185 N304 VDD VDD pmos W=0.41u L=0.04u
M103 g2888 g1758 VSS VSS nmos W=0.31u L=0.04u
M104 g2888 g1758 VDD VDD pmos W=0.41u L=0.04u
M105 g5181 N314 VSS VSS nmos W=0.31u L=0.04u
M106 g5181 N314 VDD VDD pmos W=0.41u L=0.04u
M107 g7296 n1041 VSS VSS nmos W=0.31u L=0.04u
M108 g7296 n1041 VDD VDD pmos W=0.41u L=0.04u
M109 g6881 N149 VSS VSS nmos W=0.31u L=0.04u
M110 g6881 N149 VDD VDD pmos W=0.41u L=0.04u
M111 g6880 N259 VSS VSS nmos W=0.31u L=0.04u
M112 g6880 N259 VDD VDD pmos W=0.41u L=0.04u
M113 g6888 N405 VSS VSS nmos W=0.31u L=0.04u
M114 g6888 N405 VDD VDD pmos W=0.41u L=0.04u
M115 g6883 N582 VSS VSS nmos W=0.31u L=0.04u
M116 g6883 N582 VDD VDD pmos W=0.41u L=0.04u
M117 g6871 N398 VSS VSS nmos W=0.31u L=0.04u
M118 g6871 N398 VDD VDD pmos W=0.41u L=0.04u
M119 g5169 n1105 VSS VSS nmos W=0.31u L=0.04u
M120 g5169 n1105 VDD VDD pmos W=0.41u L=0.04u
M121 g6875 N317 VSS VSS nmos W=0.31u L=0.04u
M122 g6875 N317 VDD VDD pmos W=0.41u L=0.04u
M123 g6882 N604 VSS VSS nmos W=0.31u L=0.04u
M124 g6882 N604 VDD VDD pmos W=0.41u L=0.04u
M125 g6867 N421 VSS VSS nmos W=0.31u L=0.04u
M126 g6867 N421 VDD VDD pmos W=0.41u L=0.04u
M127 g6887 N38 VSS VSS nmos W=0.31u L=0.04u
M128 g6887 N38 VDD VDD pmos W=0.41u L=0.04u
M129 g6874 N267 VSS VSS nmos W=0.31u L=0.04u
M130 g6874 N267 VDD VDD pmos W=0.41u L=0.04u
M131 g6889 N545 VSS VSS nmos W=0.31u L=0.04u
M132 g6889 N545 VDD VDD pmos W=0.41u L=0.04u
M133 g5162 n1153 VSS VSS nmos W=0.31u L=0.04u
M134 g5162 n1153 VDD VDD pmos W=0.41u L=0.04u
M135 g7106 N583 VSS VSS nmos W=0.31u L=0.04u
M136 g7106 N583 VDD VDD pmos W=0.41u L=0.04u
M137 g5734 n1152 VSS VSS nmos W=0.31u L=0.04u
M138 g5734 n1152 VDD VDD pmos W=0.41u L=0.04u
M139 g6890 N493 VSS VSS nmos W=0.31u L=0.04u
M140 g6890 N493 VDD VDD pmos W=0.41u L=0.04u
M141 g6891 N758 VSS VSS nmos W=0.31u L=0.04u
M142 g6891 N758 VDD VDD pmos W=0.41u L=0.04u
M143 g6884 N460 VSS VSS nmos W=0.31u L=0.04u
M144 g6884 N460 VDD VDD pmos W=0.41u L=0.04u
M145 g6885 N226 VSS VSS nmos W=0.31u L=0.04u
M146 g6885 N226 VDD VDD pmos W=0.41u L=0.04u
M147 g6866 N268 VSS VSS nmos W=0.31u L=0.04u
M148 g6866 N268 VDD VDD pmos W=0.41u L=0.04u
M149 g6873 N15 VSS VSS nmos W=0.31u L=0.04u
M150 g6873 N15 VDD VDD pmos W=0.41u L=0.04u
M151 g6872 N745 VSS VSS nmos W=0.31u L=0.04u
M152 g6872 N745 VDD VDD pmos W=0.41u L=0.04u
M153 g6886 N297 VSS VSS nmos W=0.31u L=0.04u
M154 g6886 N297 VDD VDD pmos W=0.41u L=0.04u
M155 g6879 N564 VSS VSS nmos W=0.31u L=0.04u
M156 g6879 N564 VDD VDD pmos W=0.41u L=0.04u
M157 g8228 n861 VSS VSS nmos W=0.31u L=0.04u
M158 g8228 n861 VDD VDD pmos W=0.41u L=0.04u
M159 g7297 n1095 VSS VSS nmos W=0.31u L=0.04u
M160 g7297 n1095 VDD VDD pmos W=0.41u L=0.04u
M161 g7518 n1073 VSS VSS nmos W=0.31u L=0.04u
M162 g7518 n1073 VDD VDD pmos W=0.41u L=0.04u
M163 g6372 N591 VSS VSS nmos W=0.31u L=0.04u
M164 g6372 N591 VDD VDD pmos W=0.41u L=0.04u
M165 g6862 n1114 VSS VSS nmos W=0.31u L=0.04u
M166 g6862 n1114 VDD VDD pmos W=0.41u L=0.04u
M167 g5745 n1066 VSS VSS nmos W=0.31u L=0.04u
M168 g5745 n1066 VDD VDD pmos W=0.41u L=0.04u
M169 g5744 n1075 VSS VSS nmos W=0.31u L=0.04u
M170 g5744 n1075 VDD VDD pmos W=0.41u L=0.04u
M171 g6383 n955 VSS VSS nmos W=0.31u L=0.04u
M172 g6383 n955 VDD VDD pmos W=0.41u L=0.04u
M173 g6378 n916 VSS VSS nmos W=0.31u L=0.04u
M174 g6378 n916 VDD VDD pmos W=0.41u L=0.04u
M175 g8677 n907 VSS VSS nmos W=0.31u L=0.04u
M176 g8677 n907 VDD VDD pmos W=0.41u L=0.04u
M177 g6864 n1112 VSS VSS nmos W=0.31u L=0.04u
M178 g6864 n1112 VDD VDD pmos W=0.41u L=0.04u
M179 g5163 n1157 VSS VSS nmos W=0.31u L=0.04u
M180 g5163 n1157 VDD VDD pmos W=0.41u L=0.04u
M181 g8676 n909 VSS VSS nmos W=0.31u L=0.04u
M182 g8676 n909 VDD VDD pmos W=0.41u L=0.04u
M183 g5180 n1067 VSS VSS nmos W=0.31u L=0.04u
M184 g5180 n1067 VDD VDD pmos W=0.41u L=0.04u
M185 g5177 n1076 VSS VSS nmos W=0.31u L=0.04u
M186 g5177 n1076 VDD VDD pmos W=0.41u L=0.04u
M187 g5186 n1035 VSS VSS nmos W=0.31u L=0.04u
M188 g5186 n1035 VDD VDD pmos W=0.41u L=0.04u
M189 g6385 n1142 VSS VSS nmos W=0.31u L=0.04u
M190 g6385 n1142 VDD VDD pmos W=0.41u L=0.04u
M191 g5170 n1104 VSS VSS nmos W=0.31u L=0.04u
M192 g5170 n1104 VDD VDD pmos W=0.41u L=0.04u
M193 g6853 n1099 VSS VSS nmos W=0.31u L=0.04u
M194 g6853 n1099 VDD VDD pmos W=0.41u L=0.04u
M195 g8864 n872 VSS VSS nmos W=0.31u L=0.04u
M196 g8864 n872 VDD VDD pmos W=0.41u L=0.04u
M197 g8672 n1096 VSS VSS nmos W=0.31u L=0.04u
M198 g8672 n1096 VDD VDD pmos W=0.41u L=0.04u
M199 g7762 n1093 VSS VSS nmos W=0.31u L=0.04u
M200 g7762 n1093 VDD VDD pmos W=0.41u L=0.04u
M201 g7112 n954 VSS VSS nmos W=0.31u L=0.04u
M202 g7112 n954 VDD VDD pmos W=0.41u L=0.04u
M203 g7303 n952 VSS VSS nmos W=0.31u L=0.04u
M204 g7303 n952 VDD VDD pmos W=0.41u L=0.04u
M205 g7757 n1040 VSS VSS nmos W=0.31u L=0.04u
M206 g7757 n1040 VDD VDD pmos W=0.41u L=0.04u
M207 g4598 N277 VSS VSS nmos W=0.31u L=0.04u
M208 g4598 N277 VDD VDD pmos W=0.41u L=0.04u
M209 g5731 n895 VSS VSS nmos W=0.31u L=0.04u
M210 g5731 n895 VDD VDD pmos W=0.41u L=0.04u
M211 g5746 n1107 VSS VSS nmos W=0.31u L=0.04u
M212 g5746 n1107 VDD VDD pmos W=0.41u L=0.04u
M213 g5184 n1128 VSS VSS nmos W=0.31u L=0.04u
M214 g5184 n1128 VDD VDD pmos W=0.41u L=0.04u
M215 g8674 n1059 VSS VSS nmos W=0.31u L=0.04u
M216 g8674 n1059 VDD VDD pmos W=0.41u L=0.04u
M217 g6858 n918 VSS VSS nmos W=0.31u L=0.04u
M218 g6858 n918 VDD VDD pmos W=0.41u L=0.04u
M219 g5732 n1161 VSS VSS nmos W=0.31u L=0.04u
M220 g5732 n1161 VDD VDD pmos W=0.41u L=0.04u
M221 g5730 n1103 VSS VSS nmos W=0.31u L=0.04u
M222 g5730 n1103 VDD VDD pmos W=0.41u L=0.04u
M223 g5733 n854 VSS VSS nmos W=0.31u L=0.04u
M224 g5733 n854 VDD VDD pmos W=0.41u L=0.04u
M225 g7109 n917 VSS VSS nmos W=0.31u L=0.04u
M226 g7109 n917 VDD VDD pmos W=0.41u L=0.04u
M227 g6857 n924 VSS VSS nmos W=0.31u L=0.04u
M228 g6857 n924 VDD VDD pmos W=0.41u L=0.04u
M229 g7521 n1056 VSS VSS nmos W=0.31u L=0.04u
M230 g7521 n1056 VDD VDD pmos W=0.41u L=0.04u
M231 g7516 n1080 VSS VSS nmos W=0.31u L=0.04u
M232 g7516 n1080 VDD VDD pmos W=0.41u L=0.04u
M233 g7517 n1078 VSS VSS nmos W=0.31u L=0.04u
M234 g7517 n1078 VDD VDD pmos W=0.41u L=0.04u
M235 g7761 n1094 VSS VSS nmos W=0.31u L=0.04u
M236 g7761 n1094 VDD VDD pmos W=0.41u L=0.04u
M237 g5168 n862 VSS VSS nmos W=0.31u L=0.04u
M238 g5168 n862 VDD VDD pmos W=0.41u L=0.04u
M239 g7759 n1038 VSS VSS nmos W=0.31u L=0.04u
M240 g7759 n1038 VDD VDD pmos W=0.41u L=0.04u
M241 g7527 n957 VSS VSS nmos W=0.31u L=0.04u
M242 g7527 n957 VDD VDD pmos W=0.41u L=0.04u
M243 g7108 n920 VSS VSS nmos W=0.31u L=0.04u
M244 g7108 n920 VDD VDD pmos W=0.41u L=0.04u
M245 g5167 n1155 VSS VSS nmos W=0.31u L=0.04u
M246 g5167 n1155 VDD VDD pmos W=0.41u L=0.04u
M247 g7513 g6976 VSS VSS nmos W=0.31u L=0.04u
M248 g7513 g6976 VDD VDD pmos W=0.41u L=0.04u
M249 g4668 n1032 VSS VSS nmos W=0.31u L=0.04u
M250 g4668 n1032 VDD VDD pmos W=0.41u L=0.04u
M251 g7766 n1057 VSS VSS nmos W=0.31u L=0.04u
M252 g7766 n1057 VDD VDD pmos W=0.41u L=0.04u
M253 g7299 n1055 VSS VSS nmos W=0.31u L=0.04u
M254 g7299 n1055 VDD VDD pmos W=0.41u L=0.04u
M255 g7300 n919 VSS VSS nmos W=0.31u L=0.04u
M256 g7300 n919 VDD VDD pmos W=0.41u L=0.04u
M257 g8225 n1058 VSS VSS nmos W=0.31u L=0.04u
M258 g8225 n1058 VDD VDD pmos W=0.41u L=0.04u
M259 g8226 n930 VSS VSS nmos W=0.31u L=0.04u
M260 g8226 n930 VDD VDD pmos W=0.41u L=0.04u
M261 g7102 n1139 VSS VSS nmos W=0.31u L=0.04u
M262 g7102 n1139 VDD VDD pmos W=0.41u L=0.04u
M263 g6852 n1159 VSS VSS nmos W=0.31u L=0.04u
M264 g6852 n1159 VDD VDD pmos W=0.41u L=0.04u
M265 g8956 n1021 VSS VSS nmos W=0.31u L=0.04u
M266 g8956 n1021 VDD VDD pmos W=0.41u L=0.04u
M267 g7107 n1054 VSS VSS nmos W=0.31u L=0.04u
M268 g7107 n1054 VDD VDD pmos W=0.41u L=0.04u
M269 g5178 n1068 VSS VSS nmos W=0.31u L=0.04u
M270 g5178 n1068 VDD VDD pmos W=0.41u L=0.04u
M271 g7778 n855 VSS VSS nmos W=0.31u L=0.04u
M272 g7778 n855 VDD VDD pmos W=0.41u L=0.04u
M273 g9034 n875 VSS VSS nmos W=0.31u L=0.04u
M274 g9034 n875 VDD VDD pmos W=0.41u L=0.04u
M275 g6377 n925 VSS VSS nmos W=0.31u L=0.04u
M276 g6377 n925 VDD VDD pmos W=0.41u L=0.04u
M277 g8871 n1072 VSS VSS nmos W=0.31u L=0.04u
M278 g8871 n1072 VDD VDD pmos W=0.41u L=0.04u
M279 g8869 n1071 VSS VSS nmos W=0.31u L=0.04u
M280 g8869 n1071 VDD VDD pmos W=0.41u L=0.04u
M281 g6379 n926 VSS VSS nmos W=0.31u L=0.04u
M282 g6379 n926 VDD VDD pmos W=0.41u L=0.04u
M283 g6859 n922 VSS VSS nmos W=0.31u L=0.04u
M284 g6859 n922 VDD VDD pmos W=0.41u L=0.04u
M285 g7769 n937 VSS VSS nmos W=0.31u L=0.04u
M286 g7769 n937 VDD VDD pmos W=0.41u L=0.04u
M287 g7780 n857 VSS VSS nmos W=0.31u L=0.04u
M288 g7780 n857 VDD VDD pmos W=0.41u L=0.04u
M289 g9386 n853 VSS VSS nmos W=0.31u L=0.04u
M290 g9386 n853 VDD VDD pmos W=0.41u L=0.04u
M291 g7776 n860 VSS VSS nmos W=0.31u L=0.04u
M292 g7776 n860 VDD VDD pmos W=0.41u L=0.04u
M293 g5172 n1160 VSS VSS nmos W=0.31u L=0.04u
M294 g5172 n1160 VDD VDD pmos W=0.41u L=0.04u
M295 g7753 n1018 VSS VSS nmos W=0.31u L=0.04u
M296 g7753 n1018 VDD VDD pmos W=0.41u L=0.04u
M297 g7751 n1019 VSS VSS nmos W=0.31u L=0.04u
M298 g7751 n1019 VDD VDD pmos W=0.41u L=0.04u
M299 g7754 n1017 VSS VSS nmos W=0.31u L=0.04u
M300 g7754 n1017 VDD VDD pmos W=0.41u L=0.04u
M301 g7752 n1020 VSS VSS nmos W=0.31u L=0.04u
M302 g7752 n1020 VDD VDD pmos W=0.41u L=0.04u
M303 g7755 n946 VSS VSS nmos W=0.31u L=0.04u
M304 g7755 n946 VDD VDD pmos W=0.41u L=0.04u
M305 g6371 n1050 VSS VSS nmos W=0.31u L=0.04u
M306 g6371 n1050 VDD VDD pmos W=0.41u L=0.04u
M307 g7774 n939 VSS VSS nmos W=0.31u L=0.04u
M308 g7774 n939 VDD VDD pmos W=0.41u L=0.04u
M309 g6386 N737 VSS VSS nmos W=0.31u L=0.04u
M310 g6386 N737 VDD VDD pmos W=0.41u L=0.04u
M311 g6392 n898 VSS VSS nmos W=0.31u L=0.04u
M312 g6392 n898 VDD VDD pmos W=0.41u L=0.04u
M313 g6391 N170 VSS VSS nmos W=0.31u L=0.04u
M314 g6391 N170 VDD VDD pmos W=0.41u L=0.04u
M315 g8221 n1030 VSS VSS nmos W=0.31u L=0.04u
M316 g8221 n1030 VDD VDD pmos W=0.41u L=0.04u
M317 g8220 n1031 VSS VSS nmos W=0.31u L=0.04u
M318 g8220 n1031 VDD VDD pmos W=0.41u L=0.04u
M319 g8222 n1029 VSS VSS nmos W=0.31u L=0.04u
M320 g8222 n1029 VDD VDD pmos W=0.41u L=0.04u
M321 g4669 n1034 VSS VSS nmos W=0.31u L=0.04u
M322 g4669 n1034 VDD VDD pmos W=0.41u L=0.04u
M323 g5175 n1100 VSS VSS nmos W=0.31u L=0.04u
M324 g5175 n1100 VDD VDD pmos W=0.41u L=0.04u
M325 g5179 n913 VSS VSS nmos W=0.31u L=0.04u
M326 g5179 n913 VDD VDD pmos W=0.41u L=0.04u
M327 g7520 n880 VSS VSS nmos W=0.31u L=0.04u
M328 g7520 n880 VDD VDD pmos W=0.41u L=0.04u
M329 g7524 n882 VSS VSS nmos W=0.31u L=0.04u
M330 g7524 n882 VDD VDD pmos W=0.41u L=0.04u
M331 g7765 n885 VSS VSS nmos W=0.31u L=0.04u
M332 g7765 n885 VDD VDD pmos W=0.41u L=0.04u
M333 g8873 n888 VSS VSS nmos W=0.31u L=0.04u
M334 g8873 n888 VDD VDD pmos W=0.41u L=0.04u
M335 g9117 n891 VSS VSS nmos W=0.31u L=0.04u
M336 g9117 n891 VDD VDD pmos W=0.41u L=0.04u
M337 g7510 g6996 VSS VSS nmos W=0.31u L=0.04u
M338 g7510 g6996 VDD VDD pmos W=0.41u L=0.04u
M339 g8870 n1074 VSS VSS nmos W=0.31u L=0.04u
M340 g8870 n1074 VDD VDD pmos W=0.41u L=0.04u
M341 g7748 n1012 VSS VSS nmos W=0.31u L=0.04u
M342 g7748 n1012 VDD VDD pmos W=0.41u L=0.04u
M343 g7749 n1010 VSS VSS nmos W=0.31u L=0.04u
M344 g7749 n1010 VDD VDD pmos W=0.41u L=0.04u
M345 g7745 n1011 VSS VSS nmos W=0.31u L=0.04u
M346 g7745 n1011 VDD VDD pmos W=0.41u L=0.04u
M347 g7743 n1015 VSS VSS nmos W=0.31u L=0.04u
M348 g7743 n1015 VDD VDD pmos W=0.41u L=0.04u
M349 g7744 n1014 VSS VSS nmos W=0.31u L=0.04u
M350 g7744 n1014 VDD VDD pmos W=0.41u L=0.04u
M351 g7750 n1013 VSS VSS nmos W=0.31u L=0.04u
M352 g7750 n1013 VDD VDD pmos W=0.41u L=0.04u
M353 g7747 n1016 VSS VSS nmos W=0.31u L=0.04u
M354 g7747 n1016 VDD VDD pmos W=0.41u L=0.04u
M355 g7746 n947 VSS VSS nmos W=0.31u L=0.04u
M356 g7746 n947 VDD VDD pmos W=0.41u L=0.04u
M357 g7737 n973 VSS VSS nmos W=0.31u L=0.04u
M358 g7737 n973 VDD VDD pmos W=0.41u L=0.04u
M359 g7742 n976 VSS VSS nmos W=0.31u L=0.04u
M360 g7742 n976 VDD VDD pmos W=0.41u L=0.04u
M361 g7740 n971 VSS VSS nmos W=0.31u L=0.04u
M362 g7740 n971 VDD VDD pmos W=0.41u L=0.04u
M363 g7738 n975 VSS VSS nmos W=0.31u L=0.04u
M364 g7738 n975 VDD VDD pmos W=0.41u L=0.04u
M365 g7736 n974 VSS VSS nmos W=0.31u L=0.04u
M366 g7736 n974 VDD VDD pmos W=0.41u L=0.04u
M367 g7735 n970 VSS VSS nmos W=0.31u L=0.04u
M368 g7735 n970 VDD VDD pmos W=0.41u L=0.04u
M369 g7741 n972 VSS VSS nmos W=0.31u L=0.04u
M370 g7741 n972 VDD VDD pmos W=0.41u L=0.04u
M371 g7099 n1086 VSS VSS nmos W=0.31u L=0.04u
M372 g7099 n1086 VDD VDD pmos W=0.41u L=0.04u
M373 g5182 n1140 VSS VSS nmos W=0.31u L=0.04u
M374 g5182 n1140 VDD VDD pmos W=0.41u L=0.04u
M375 g8664 n865 VSS VSS nmos W=0.31u L=0.04u
M376 g8664 n865 VDD VDD pmos W=0.41u L=0.04u
M377 g6865 n912 VSS VSS nmos W=0.31u L=0.04u
M378 g6865 n912 VDD VDD pmos W=0.41u L=0.04u
M379 g5740 N818 VSS VSS nmos W=0.31u L=0.04u
M380 g5740 N818 VDD VDD pmos W=0.41u L=0.04u
M381 g5187 n1033 VSS VSS nmos W=0.31u L=0.04u
M382 g5187 n1033 VDD VDD pmos W=0.41u L=0.04u
M383 g6854 n1088 VSS VSS nmos W=0.31u L=0.04u
M384 g6854 n1088 VDD VDD pmos W=0.41u L=0.04u
M385 g7768 n910 VSS VSS nmos W=0.31u L=0.04u
M386 g7768 n910 VDD VDD pmos W=0.41u L=0.04u
M387 g7528 n904 VSS VSS nmos W=0.31u L=0.04u
M388 g7528 n904 VDD VDD pmos W=0.41u L=0.04u
M389 g7529 n906 VSS VSS nmos W=0.31u L=0.04u
M390 g7529 n906 VDD VDD pmos W=0.41u L=0.04u
M391 g7530 n905 VSS VSS nmos W=0.31u L=0.04u
M392 g7530 n905 VDD VDD pmos W=0.41u L=0.04u
M393 g7758 n1037 VSS VSS nmos W=0.31u L=0.04u
M394 g7758 n1037 VDD VDD pmos W=0.41u L=0.04u
M395 g7119 n911 VSS VSS nmos W=0.31u L=0.04u
M396 g7119 n911 VDD VDD pmos W=0.41u L=0.04u
M397 g6855 n1053 VSS VSS nmos W=0.31u L=0.04u
M398 g6855 n1053 VDD VDD pmos W=0.41u L=0.04u
M399 g8675 n908 VSS VSS nmos W=0.31u L=0.04u
M400 g8675 n908 VDD VDD pmos W=0.41u L=0.04u
M401 g6384 n950 VSS VSS nmos W=0.31u L=0.04u
M402 g6384 n950 VDD VDD pmos W=0.41u L=0.04u
M403 g7302 n956 VSS VSS nmos W=0.31u L=0.04u
M404 g7302 n956 VDD VDD pmos W=0.41u L=0.04u
M405 g7100 n1084 VSS VSS nmos W=0.31u L=0.04u
M406 g7100 n1084 VDD VDD pmos W=0.41u L=0.04u
M407 g8874 n1060 VSS VSS nmos W=0.31u L=0.04u
M408 g8874 n1060 VDD VDD pmos W=0.41u L=0.04u
M409 g5736 n927 VSS VSS nmos W=0.31u L=0.04u
M410 g5736 n927 VDD VDD pmos W=0.41u L=0.04u
M411 g7777 n859 VSS VSS nmos W=0.31u L=0.04u
M412 g7777 n859 VDD VDD pmos W=0.41u L=0.04u
M413 g6863 n1113 VSS VSS nmos W=0.31u L=0.04u
M414 g6863 n1113 VDD VDD pmos W=0.41u L=0.04u
M415 g7515 n1079 VSS VSS nmos W=0.31u L=0.04u
M416 g7515 n1079 VDD VDD pmos W=0.41u L=0.04u
M417 g5183 n1141 VSS VSS nmos W=0.31u L=0.04u
M418 g5183 n1141 VDD VDD pmos W=0.41u L=0.04u
M419 g7772 n938 VSS VSS nmos W=0.31u L=0.04u
M420 g7772 n938 VDD VDD pmos W=0.41u L=0.04u
M421 g7773 n942 VSS VSS nmos W=0.31u L=0.04u
M422 g7773 n942 VDD VDD pmos W=0.41u L=0.04u
M423 g8875 n934 VSS VSS nmos W=0.31u L=0.04u
M424 g8875 n934 VDD VDD pmos W=0.41u L=0.04u
M425 g8960 n933 VSS VSS nmos W=0.31u L=0.04u
M426 g8960 n933 VDD VDD pmos W=0.41u L=0.04u
M427 g7770 n936 VSS VSS nmos W=0.31u L=0.04u
M428 g7770 n936 VDD VDD pmos W=0.41u L=0.04u
M429 g8678 n932 VSS VSS nmos W=0.31u L=0.04u
M430 g8678 n932 VDD VDD pmos W=0.41u L=0.04u
M431 g7775 n940 VSS VSS nmos W=0.31u L=0.04u
M432 g7775 n940 VDD VDD pmos W=0.41u L=0.04u
M433 g8227 n935 VSS VSS nmos W=0.31u L=0.04u
M434 g8227 n935 VDD VDD pmos W=0.41u L=0.04u
M435 g7771 n931 VSS VSS nmos W=0.31u L=0.04u
M436 g7771 n931 VDD VDD pmos W=0.41u L=0.04u
M437 g7101 n1085 VSS VSS nmos W=0.31u L=0.04u
M438 g7101 n1085 VDD VDD pmos W=0.41u L=0.04u
M439 g9092 n969 VSS VSS nmos W=0.31u L=0.04u
M440 g9092 n969 VDD VDD pmos W=0.41u L=0.04u
M441 g9086 n963 VSS VSS nmos W=0.31u L=0.04u
M442 g9086 n963 VDD VDD pmos W=0.41u L=0.04u
M443 g9085 n967 VSS VSS nmos W=0.31u L=0.04u
M444 g9085 n967 VDD VDD pmos W=0.41u L=0.04u
M445 g9090 n965 VSS VSS nmos W=0.31u L=0.04u
M446 g9090 n965 VDD VDD pmos W=0.41u L=0.04u
M447 g9089 n958 VSS VSS nmos W=0.31u L=0.04u
M448 g9089 n958 VDD VDD pmos W=0.41u L=0.04u
M449 g9087 n968 VSS VSS nmos W=0.31u L=0.04u
M450 g9087 n968 VDD VDD pmos W=0.41u L=0.04u
M451 g9091 n966 VSS VSS nmos W=0.31u L=0.04u
M452 g9091 n966 VDD VDD pmos W=0.41u L=0.04u
M453 g9088 n964 VSS VSS nmos W=0.31u L=0.04u
M454 g9088 n964 VDD VDD pmos W=0.41u L=0.04u
M455 g9093 n998 VSS VSS nmos W=0.31u L=0.04u
M456 g9093 n998 VDD VDD pmos W=0.41u L=0.04u
M457 g9100 n993 VSS VSS nmos W=0.31u L=0.04u
M458 g9100 n993 VDD VDD pmos W=0.41u L=0.04u
M459 g9094 n901 VSS VSS nmos W=0.31u L=0.04u
M460 g9094 n901 VDD VDD pmos W=0.41u L=0.04u
M461 g9097 n995 VSS VSS nmos W=0.31u L=0.04u
M462 g9097 n995 VDD VDD pmos W=0.41u L=0.04u
M463 g9095 n999 VSS VSS nmos W=0.31u L=0.04u
M464 g9095 n999 VDD VDD pmos W=0.41u L=0.04u
M465 g9098 n997 VSS VSS nmos W=0.31u L=0.04u
M466 g9098 n997 VDD VDD pmos W=0.41u L=0.04u
M467 g9099 n994 VSS VSS nmos W=0.31u L=0.04u
M468 g9099 n994 VDD VDD pmos W=0.41u L=0.04u
M469 g9096 n996 VSS VSS nmos W=0.31u L=0.04u
M470 g9096 n996 VDD VDD pmos W=0.41u L=0.04u
M471 g8957 n1077 VSS VSS nmos W=0.31u L=0.04u
M472 g8957 n1077 VDD VDD pmos W=0.41u L=0.04u
M473 g5737 n1116 VSS VSS nmos W=0.31u L=0.04u
M474 g5737 n1116 VDD VDD pmos W=0.41u L=0.04u
M475 g5738 n1117 VSS VSS nmos W=0.31u L=0.04u
M476 g5738 n1117 VDD VDD pmos W=0.41u L=0.04u
M477 g4658 n903 VSS VSS nmos W=0.31u L=0.04u
M478 g4658 n903 VDD VDD pmos W=0.41u L=0.04u
M479 g7110 n928 VSS VSS nmos W=0.31u L=0.04u
M480 g7110 n928 VDD VDD pmos W=0.41u L=0.04u
M481 g8668 n869 VSS VSS nmos W=0.31u L=0.04u
M482 g8668 n869 VDD VDD pmos W=0.41u L=0.04u
M483 g8670 n866 VSS VSS nmos W=0.31u L=0.04u
M484 g8670 n866 VDD VDD pmos W=0.41u L=0.04u
M485 g8667 n867 VSS VSS nmos W=0.31u L=0.04u
M486 g8667 n867 VDD VDD pmos W=0.41u L=0.04u
M487 g8665 n851 VSS VSS nmos W=0.31u L=0.04u
M488 g8665 n851 VDD VDD pmos W=0.41u L=0.04u
M489 g8669 n868 VSS VSS nmos W=0.31u L=0.04u
M490 g8669 n868 VDD VDD pmos W=0.41u L=0.04u
M491 g8666 n870 VSS VSS nmos W=0.31u L=0.04u
M492 g8666 n870 VDD VDD pmos W=0.41u L=0.04u
M493 g8671 n871 VSS VSS nmos W=0.31u L=0.04u
M494 g8671 n871 VDD VDD pmos W=0.41u L=0.04u
M495 g8867 n873 VSS VSS nmos W=0.31u L=0.04u
M496 g8867 n873 VDD VDD pmos W=0.41u L=0.04u
M497 g5165 n1087 VSS VSS nmos W=0.31u L=0.04u
M498 g5165 n1087 VDD VDD pmos W=0.41u L=0.04u
M499 g7308 n1065 VSS VSS nmos W=0.31u L=0.04u
M500 g7308 n1065 VDD VDD pmos W=0.41u L=0.04u
M501 g7519 n884 VSS VSS nmos W=0.31u L=0.04u
M502 g7519 n884 VDD VDD pmos W=0.41u L=0.04u
M503 g8673 n887 VSS VSS nmos W=0.31u L=0.04u
M504 g8673 n887 VDD VDD pmos W=0.41u L=0.04u
M505 g8224 n886 VSS VSS nmos W=0.31u L=0.04u
M506 g8224 n886 VDD VDD pmos W=0.41u L=0.04u
M507 g9134 n892 VSS VSS nmos W=0.31u L=0.04u
M508 g9134 n892 VDD VDD pmos W=0.41u L=0.04u
M509 g7525 n883 VSS VSS nmos W=0.31u L=0.04u
M510 g7525 n883 VDD VDD pmos W=0.41u L=0.04u
M511 g9035 n890 VSS VSS nmos W=0.31u L=0.04u
M512 g9035 n890 VDD VDD pmos W=0.41u L=0.04u
M513 g7522 n879 VSS VSS nmos W=0.31u L=0.04u
M514 g7522 n879 VDD VDD pmos W=0.41u L=0.04u
M515 g8959 n889 VSS VSS nmos W=0.31u L=0.04u
M516 g8959 n889 VDD VDD pmos W=0.41u L=0.04u
M517 g7523 n881 VSS VSS nmos W=0.31u L=0.04u
M518 g7523 n881 VDD VDD pmos W=0.41u L=0.04u
M519 g8865 n874 VSS VSS nmos W=0.31u L=0.04u
M520 g8865 n874 VDD VDD pmos W=0.41u L=0.04u
M521 g9111 n877 VSS VSS nmos W=0.31u L=0.04u
M522 g9111 n877 VDD VDD pmos W=0.41u L=0.04u
M523 g9110 n1026 VSS VSS nmos W=0.31u L=0.04u
M524 g9110 n1026 VDD VDD pmos W=0.41u L=0.04u
M525 g9116 n1022 VSS VSS nmos W=0.31u L=0.04u
M526 g9116 n1022 VDD VDD pmos W=0.41u L=0.04u
M527 g9115 n1025 VSS VSS nmos W=0.31u L=0.04u
M528 g9115 n1025 VDD VDD pmos W=0.41u L=0.04u
M529 g9113 n1023 VSS VSS nmos W=0.31u L=0.04u
M530 g9113 n1023 VDD VDD pmos W=0.41u L=0.04u
M531 g9112 n1028 VSS VSS nmos W=0.31u L=0.04u
M532 g9112 n1028 VDD VDD pmos W=0.41u L=0.04u
M533 g9114 n1027 VSS VSS nmos W=0.31u L=0.04u
M534 g9114 n1027 VDD VDD pmos W=0.41u L=0.04u
M535 g9109 n1024 VSS VSS nmos W=0.31u L=0.04u
M536 g9109 n1024 VDD VDD pmos W=0.41u L=0.04u
M537 g7781 n858 VSS VSS nmos W=0.31u L=0.04u
M538 g7781 n858 VDD VDD pmos W=0.41u L=0.04u
M539 g6368 n1111 VSS VSS nmos W=0.31u L=0.04u
M540 g6368 n1111 VDD VDD pmos W=0.41u L=0.04u
M541 g6367 n1129 VSS VSS nmos W=0.31u L=0.04u
M542 g6367 n1129 VDD VDD pmos W=0.41u L=0.04u
M543 g6366 n1137 VSS VSS nmos W=0.31u L=0.04u
M544 g6366 n1137 VDD VDD pmos W=0.41u L=0.04u
M545 g6365 n1150 VSS VSS nmos W=0.31u L=0.04u
M546 g6365 n1150 VDD VDD pmos W=0.41u L=0.04u
M547 g6363 n896 VSS VSS nmos W=0.31u L=0.04u
M548 g6363 n896 VDD VDD pmos W=0.41u L=0.04u
M549 g6370 n1064 VSS VSS nmos W=0.31u L=0.04u
M550 g6370 n1064 VDD VDD pmos W=0.41u L=0.04u
M551 g6364 n1162 VSS VSS nmos W=0.31u L=0.04u
M552 g6364 n1162 VDD VDD pmos W=0.41u L=0.04u
M553 g6369 n1092 VSS VSS nmos W=0.31u L=0.04u
M554 g6369 n1092 VDD VDD pmos W=0.41u L=0.04u
M555 g7306 n1133 VSS VSS nmos W=0.31u L=0.04u
M556 g7306 n1133 VDD VDD pmos W=0.41u L=0.04u
M557 g7307 n1131 VSS VSS nmos W=0.31u L=0.04u
M558 g7307 n1131 VDD VDD pmos W=0.41u L=0.04u
M559 g5743 n1119 VSS VSS nmos W=0.31u L=0.04u
M560 g5743 n1119 VDD VDD pmos W=0.41u L=0.04u
M561 g7114 n1148 VSS VSS nmos W=0.31u L=0.04u
M562 g7114 n1148 VDD VDD pmos W=0.41u L=0.04u
M563 g7118 n1082 VSS VSS nmos W=0.31u L=0.04u
M564 g7118 n1082 VDD VDD pmos W=0.41u L=0.04u
M565 g7116 n1149 VSS VSS nmos W=0.31u L=0.04u
M566 g7116 n1149 VDD VDD pmos W=0.41u L=0.04u
M567 g7113 n1083 VSS VSS nmos W=0.31u L=0.04u
M568 g7113 n1083 VDD VDD pmos W=0.41u L=0.04u
M569 g7305 n1146 VSS VSS nmos W=0.31u L=0.04u
M570 g7305 n1146 VDD VDD pmos W=0.41u L=0.04u
M571 g7309 n1132 VSS VSS nmos W=0.31u L=0.04u
M572 g7309 n1132 VDD VDD pmos W=0.41u L=0.04u
M573 g6861 n1048 VSS VSS nmos W=0.31u L=0.04u
M574 g6861 n1048 VDD VDD pmos W=0.41u L=0.04u
M575 g7115 n1147 VSS VSS nmos W=0.31u L=0.04u
M576 g7115 n1147 VDD VDD pmos W=0.41u L=0.04u
M577 g7117 n1047 VSS VSS nmos W=0.31u L=0.04u
M578 g7117 n1047 VDD VDD pmos W=0.41u L=0.04u
M579 g5742 n1127 VSS VSS nmos W=0.31u L=0.04u
M580 g5742 n1127 VDD VDD pmos W=0.41u L=0.04u
M581 g9105 n978 VSS VSS nmos W=0.31u L=0.04u
M582 g9105 n978 VDD VDD pmos W=0.41u L=0.04u
M583 g9103 n980 VSS VSS nmos W=0.31u L=0.04u
M584 g9103 n980 VDD VDD pmos W=0.41u L=0.04u
M585 g9104 n979 VSS VSS nmos W=0.31u L=0.04u
M586 g9104 n979 VDD VDD pmos W=0.41u L=0.04u
M587 g9106 n982 VSS VSS nmos W=0.31u L=0.04u
M588 g9106 n982 VDD VDD pmos W=0.41u L=0.04u
M589 g9031 n987 VSS VSS nmos W=0.31u L=0.04u
M590 g9031 n987 VDD VDD pmos W=0.41u L=0.04u
M591 g9029 n991 VSS VSS nmos W=0.31u L=0.04u
M592 g9029 n991 VDD VDD pmos W=0.41u L=0.04u
M593 g9028 n985 VSS VSS nmos W=0.31u L=0.04u
M594 g9028 n985 VDD VDD pmos W=0.41u L=0.04u
M595 g9027 n992 VSS VSS nmos W=0.31u L=0.04u
M596 g9027 n992 VDD VDD pmos W=0.41u L=0.04u
M597 g9101 n981 VSS VSS nmos W=0.31u L=0.04u
M598 g9101 n981 VDD VDD pmos W=0.41u L=0.04u
M599 g9033 n989 VSS VSS nmos W=0.31u L=0.04u
M600 g9033 n989 VDD VDD pmos W=0.41u L=0.04u
M601 g9026 n986 VSS VSS nmos W=0.31u L=0.04u
M602 g9026 n986 VDD VDD pmos W=0.41u L=0.04u
M603 g9107 n977 VSS VSS nmos W=0.31u L=0.04u
M604 g9107 n977 VDD VDD pmos W=0.41u L=0.04u
M605 g9032 n990 VSS VSS nmos W=0.31u L=0.04u
M606 g9032 n990 VDD VDD pmos W=0.41u L=0.04u
M607 g9030 n988 VSS VSS nmos W=0.31u L=0.04u
M608 g9030 n988 VDD VDD pmos W=0.41u L=0.04u
M609 g9102 n984 VSS VSS nmos W=0.31u L=0.04u
M610 g9102 n984 VDD VDD pmos W=0.41u L=0.04u
M611 g9108 n983 VSS VSS nmos W=0.31u L=0.04u
M612 g9108 n983 VDD VDD pmos W=0.41u L=0.04u
M613 g6336 n902 VSS VSS nmos W=0.31u L=0.04u
M614 g6336 n902 VDD VDD pmos W=0.41u L=0.04u
M615 g6352 n949 VSS VSS nmos W=0.31u L=0.04u
M616 g6352 n949 VDD VDD pmos W=0.41u L=0.04u
M617 g6318 n959 VSS VSS nmos W=0.31u L=0.04u
M618 g6318 n959 VDD VDD pmos W=0.41u L=0.04u
M619 g6323 n1049 VSS VSS nmos W=0.31u L=0.04u
M620 g6323 n1049 VDD VDD pmos W=0.41u L=0.04u
M621 g6356 n1063 VSS VSS nmos W=0.31u L=0.04u
M622 g6356 n1063 VDD VDD pmos W=0.41u L=0.04u
M623 g6332 n1042 VSS VSS nmos W=0.31u L=0.04u
M624 g6332 n1042 VDD VDD pmos W=0.41u L=0.04u
M625 g6341 n839 VSS VSS nmos W=0.31u L=0.04u
M626 g6341 n839 VDD VDD pmos W=0.41u L=0.04u
M627 g6348 n848 VSS VSS nmos W=0.31u L=0.04u
M628 g6348 n848 VDD VDD pmos W=0.41u L=0.04u
M629 g6317 n1089 VSS VSS nmos W=0.31u L=0.04u
M630 g6317 n1089 VDD VDD pmos W=0.41u L=0.04u
M631 g6313 n1091 VSS VSS nmos W=0.31u L=0.04u
M632 g6313 n1091 VDD VDD pmos W=0.41u L=0.04u
M633 g6340 n841 VSS VSS nmos W=0.31u L=0.04u
M634 g6340 n841 VDD VDD pmos W=0.41u L=0.04u
M635 g6355 n1106 VSS VSS nmos W=0.31u L=0.04u
M636 g6355 n1106 VDD VDD pmos W=0.41u L=0.04u
M637 g6319 n1108 VSS VSS nmos W=0.31u L=0.04u
M638 g6319 n1108 VDD VDD pmos W=0.41u L=0.04u
M639 g6312 n1110 VSS VSS nmos W=0.31u L=0.04u
M640 g6312 n1110 VDD VDD pmos W=0.41u L=0.04u
M641 g6314 n1115 VSS VSS nmos W=0.31u L=0.04u