.SUBCKT s1423 CK G0 G1 G10 G11 G12 G13 G14 G15 G16 G2 G3 G4 G5 G6 G7 G701BF G702 G93 G727 G95 G8 G9 VDD VSS 
M1 G693 OR2_132/net7 VSS VSS nmos W=0.31u L=0.04u
M2 OR2_132/net7 G692 VSS VSS nmos W=0.155u L=0.04u
M3 OR2_132/net7 G699 VSS VSS nmos W=0.155u L=0.04u
M4 G693 OR2_132/net7 VDD VDD pmos W=0.41u L=0.04u
M5 OR2_132/X_u7-net8 G699 VDD VDD pmos W=0.41u L=0.04u
M6 OR2_132/net7 G692 OR2_132/X_u7-net8 VDD pmos W=0.41u L=0.04u
M7 G687 OR2_129/net7 VSS VSS nmos W=0.31u L=0.04u
M8 OR2_129/net7 G686 VSS VSS nmos W=0.155u L=0.04u
M9 OR2_129/net7 G699 VSS VSS nmos W=0.155u L=0.04u
M10 G687 OR2_129/net7 VDD VDD pmos W=0.41u L=0.04u
M11 OR2_129/X_u7-net8 G699 VDD VDD pmos W=0.41u L=0.04u
M12 OR2_129/net7 G686 OR2_129/X_u7-net8 VDD pmos W=0.41u L=0.04u
M13 G682 OR2_127/net7 VSS VSS nmos W=0.31u L=0.04u
M14 OR2_127/net7 G681 VSS VSS nmos W=0.155u L=0.04u
M15 OR2_127/net7 G699 VSS VSS nmos W=0.155u L=0.04u
M16 G682 OR2_127/net7 VDD VDD pmos W=0.41u L=0.04u
M17 OR2_127/X_u7-net8 G699 VDD VDD pmos W=0.41u L=0.04u
M18 OR2_127/net7 G681 OR2_127/X_u7-net8 VDD pmos W=0.41u L=0.04u
M19 G713 AND2_193/net6 VSS VSS nmos W=0.31u L=0.04u
M20 AND2_193/X_u2-net6 G14 VSS VSS nmos W=0.31u L=0.04u
M21 AND2_193/net6 G599 AND2_193/X_u2-net6 VSS nmos W=0.31u L=0.04u
M22 G713 AND2_193/net6 VDD VDD pmos W=0.41u L=0.04u
M23 AND2_193/net6 G14 VDD VDD pmos W=0.41u L=0.04u
M24 AND2_193/net6 G599 VDD VDD pmos W=0.41u L=0.04u
M25 G707 AND2_191/net6 VSS VSS nmos W=0.31u L=0.04u
M26 AND2_191/X_u2-net6 G14 VSS VSS nmos W=0.31u L=0.04u
M27 AND2_191/net6 G708 AND2_191/X_u2-net6 VSS nmos W=0.31u L=0.04u
M28 G707 AND2_191/net6 VDD VDD pmos W=0.41u L=0.04u
M29 AND2_191/net6 G14 VDD VDD pmos W=0.41u L=0.04u
M30 AND2_191/net6 G708 VDD VDD pmos W=0.41u L=0.04u
M31 G705 AND2_190/net6 VSS VSS nmos W=0.31u L=0.04u
M32 AND2_190/X_u2-net6 G14 VSS VSS nmos W=0.31u L=0.04u
M33 AND2_190/net6 n223 AND2_190/X_u2-net6 VSS nmos W=0.31u L=0.04u
M34 G705 AND2_190/net6 VDD VDD pmos W=0.41u L=0.04u
M35 AND2_190/net6 G14 VDD VDD pmos W=0.41u L=0.04u
M36 AND2_190/net6 n223 VDD VDD pmos W=0.41u L=0.04u
M37 G675 AND2_184/net6 VSS VSS nmos W=0.31u L=0.04u
M38 AND2_184/X_u2-net6 G14 VSS VSS nmos W=0.31u L=0.04u
M39 AND2_184/net6 G676 AND2_184/X_u2-net6 VSS nmos W=0.31u L=0.04u
M40 G675 AND2_184/net6 VDD VDD pmos W=0.41u L=0.04u
M41 AND2_184/net6 G14 VDD VDD pmos W=0.41u L=0.04u
M42 AND2_184/net6 G676 VDD VDD pmos W=0.41u L=0.04u
M43 G669 AND2_182/net6 VSS VSS nmos W=0.31u L=0.04u
M44 AND2_182/X_u2-net6 G14 VSS VSS nmos W=0.31u L=0.04u
M45 AND2_182/net6 G670 AND2_182/X_u2-net6 VSS nmos W=0.31u L=0.04u
M46 G669 AND2_182/net6 VDD VDD pmos W=0.41u L=0.04u
M47 AND2_182/net6 G14 VDD VDD pmos W=0.41u L=0.04u
M48 AND2_182/net6 G670 VDD VDD pmos W=0.41u L=0.04u
M49 G663 AND2_180/net6 VSS VSS nmos W=0.31u L=0.04u
M50 AND2_180/X_u2-net6 G14 VSS VSS nmos W=0.31u L=0.04u
M51 AND2_180/net6 G664 AND2_180/X_u2-net6 VSS nmos W=0.31u L=0.04u
M52 G663 AND2_180/net6 VDD VDD pmos W=0.41u L=0.04u
M53 AND2_180/net6 G14 VDD VDD pmos W=0.41u L=0.04u
M54 AND2_180/net6 G664 VDD VDD pmos W=0.41u L=0.04u
M55 G657 AND2_179/net6 VSS VSS nmos W=0.31u L=0.04u
M56 AND2_179/X_u2-net6 G14 VSS VSS nmos W=0.31u L=0.04u
M57 AND2_179/net6 G13 AND2_179/X_u2-net6 VSS nmos W=0.31u L=0.04u
M58 G657 AND2_179/net6 VDD VDD pmos W=0.41u L=0.04u
M59 AND2_179/net6 G14 VDD VDD pmos W=0.41u L=0.04u
M60 AND2_179/net6 G13 VDD VDD pmos W=0.41u L=0.04u
M61 G613 AND2_170/net6 VSS VSS nmos W=0.31u L=0.04u
M62 AND2_170/X_u2-net6 G612 VSS VSS nmos W=0.31u L=0.04u
M63 AND2_170/net6 G611 AND2_170/X_u2-net6 VSS nmos W=0.31u L=0.04u
M64 G613 AND2_170/net6 VDD VDD pmos W=0.41u L=0.04u
M65 AND2_170/net6 G612 VDD VDD pmos W=0.41u L=0.04u
M66 AND2_170/net6 G611 VDD VDD pmos W=0.41u L=0.04u
M67 G608 AND2_169/net6 VSS VSS nmos W=0.31u L=0.04u
M68 AND2_169/X_u2-net6 G607 VSS VSS nmos W=0.31u L=0.04u
M69 AND2_169/net6 G606 AND2_169/X_u2-net6 VSS nmos W=0.31u L=0.04u
M70 G608 AND2_169/net6 VDD VDD pmos W=0.41u L=0.04u
M71 AND2_169/net6 G607 VDD VDD pmos W=0.41u L=0.04u
M72 AND2_169/net6 G606 VDD VDD pmos W=0.41u L=0.04u
M73 G590 AND2_165/net6 VSS VSS nmos W=0.31u L=0.04u
M74 AND2_165/X_u2-net6 n224 VSS VSS nmos W=0.31u L=0.04u
M75 AND2_165/net6 G591 AND2_165/X_u2-net6 VSS nmos W=0.31u L=0.04u
M76 G590 AND2_165/net6 VDD VDD pmos W=0.41u L=0.04u
M77 AND2_165/net6 n224 VDD VDD pmos W=0.41u L=0.04u
M78 AND2_165/net6 G591 VDD VDD pmos W=0.41u L=0.04u
M79 G577 AND2_163/net6 VSS VSS nmos W=0.31u L=0.04u
M80 AND2_163/X_u2-net6 G576 VSS VSS nmos W=0.31u L=0.04u
M81 AND2_163/net6 G575 AND2_163/X_u2-net6 VSS nmos W=0.31u L=0.04u
M82 G577 AND2_163/net6 VDD VDD pmos W=0.41u L=0.04u
M83 AND2_163/net6 G576 VDD VDD pmos W=0.41u L=0.04u
M84 AND2_163/net6 G575 VDD VDD pmos W=0.41u L=0.04u
M85 G573 AND2_162/net6 VSS VSS nmos W=0.31u L=0.04u
M86 AND2_162/X_u2-net6 G572 VSS VSS nmos W=0.31u L=0.04u
M87 AND2_162/net6 G571 AND2_162/X_u2-net6 VSS nmos W=0.31u L=0.04u
M88 G573 AND2_162/net6 VDD VDD pmos W=0.41u L=0.04u
M89 AND2_162/net6 G572 VDD VDD pmos W=0.41u L=0.04u
M90 AND2_162/net6 G571 VDD VDD pmos W=0.41u L=0.04u
M91 G569 AND2_161/net6 VSS VSS nmos W=0.31u L=0.04u
M92 AND2_161/X_u2-net6 G568 VSS VSS nmos W=0.31u L=0.04u
M93 AND2_161/net6 G567 AND2_161/X_u2-net6 VSS nmos W=0.31u L=0.04u
M94 G569 AND2_161/net6 VDD VDD pmos W=0.41u L=0.04u
M95 AND2_161/net6 G568 VDD VDD pmos W=0.41u L=0.04u
M96 AND2_161/net6 G567 VDD VDD pmos W=0.41u L=0.04u
M97 G565 AND2_160/net6 VSS VSS nmos W=0.31u L=0.04u
M98 AND2_160/X_u2-net6 G564 VSS VSS nmos W=0.31u L=0.04u
M99 AND2_160/net6 G563 AND2_160/X_u2-net6 VSS nmos W=0.31u L=0.04u
M100 G565 AND2_160/net6 VDD VDD pmos W=0.41u L=0.04u
M101 AND2_160/net6 G564 VDD VDD pmos W=0.41u L=0.04u
M102 AND2_160/net6 G563 VDD VDD pmos W=0.41u L=0.04u
M103 G548 AND2_154/net6 VSS VSS nmos W=0.31u L=0.04u
M104 AND2_154/X_u2-net6 n224 VSS VSS nmos W=0.31u L=0.04u
M105 AND2_154/net6 G545 AND2_154/X_u2-net6 VSS nmos W=0.31u L=0.04u
M106 G548 AND2_154/net6 VDD VDD pmos W=0.41u L=0.04u
M107 AND2_154/net6 n224 VDD VDD pmos W=0.41u L=0.04u
M108 AND2_154/net6 G545 VDD VDD pmos W=0.41u L=0.04u
M109 G541 AND2_152/net6 VSS VSS nmos W=0.31u L=0.04u
M110 AND2_152/X_u2-net6 n224 VSS VSS nmos W=0.31u L=0.04u
M111 AND2_152/net6 G542 AND2_152/X_u2-net6 VSS nmos W=0.31u L=0.04u
M112 G541 AND2_152/net6 VDD VDD pmos W=0.41u L=0.04u
M113 AND2_152/net6 n224 VDD VDD pmos W=0.41u L=0.04u
M114 AND2_152/net6 G542 VDD VDD pmos W=0.41u L=0.04u
M115 G536 AND2_150/net6 VSS VSS nmos W=0.31u L=0.04u
M116 AND2_150/X_u2-net6 n224 VSS VSS nmos W=0.31u L=0.04u
M117 AND2_150/net6 G537 AND2_150/X_u2-net6 VSS nmos W=0.31u L=0.04u
M118 G536 AND2_150/net6 VDD VDD pmos W=0.41u L=0.04u
M119 AND2_150/net6 n224 VDD VDD pmos W=0.41u L=0.04u
M120 AND2_150/net6 G537 VDD VDD pmos W=0.41u L=0.04u
M121 G531 AND2_148/net6 VSS VSS nmos W=0.31u L=0.04u
M122 AND2_148/X_u2-net6 n224 VSS VSS nmos W=0.31u L=0.04u
M123 AND2_148/net6 G532 AND2_148/X_u2-net6 VSS nmos W=0.31u L=0.04u
M124 G531 AND2_148/net6 VDD VDD pmos W=0.41u L=0.04u
M125 AND2_148/net6 n224 VDD VDD pmos W=0.41u L=0.04u
M126 AND2_148/net6 G532 VDD VDD pmos W=0.41u L=0.04u
M127 G526 AND2_146/net6 VSS VSS nmos W=0.31u L=0.04u
M128 AND2_146/X_u2-net6 n224 VSS VSS nmos W=0.31u L=0.04u
M129 AND2_146/net6 G527 AND2_146/X_u2-net6 VSS nmos W=0.31u L=0.04u
M130 G526 AND2_146/net6 VDD VDD pmos W=0.41u L=0.04u
M131 AND2_146/net6 n224 VDD VDD pmos W=0.41u L=0.04u
M132 AND2_146/net6 G527 VDD VDD pmos W=0.41u L=0.04u
M133 G503 AND2_145/net6 VSS VSS nmos W=0.31u L=0.04u
M134 AND2_145/X_u2-net6 G502 VSS VSS nmos W=0.31u L=0.04u
M135 AND2_145/net6 G501 AND2_145/X_u2-net6 VSS nmos W=0.31u L=0.04u
M136 G503 AND2_145/net6 VDD VDD pmos W=0.41u L=0.04u
M137 AND2_145/net6 G502 VDD VDD pmos W=0.41u L=0.04u
M138 AND2_145/net6 G501 VDD VDD pmos W=0.41u L=0.04u
M139 G498 AND2_144/net6 VSS VSS nmos W=0.31u L=0.04u
M140 AND2_144/X_u2-net6 G497 VSS VSS nmos W=0.31u L=0.04u
M141 AND2_144/net6 G496 AND2_144/X_u2-net6 VSS nmos W=0.31u L=0.04u
M142 G498 AND2_144/net6 VDD VDD pmos W=0.41u L=0.04u
M143 AND2_144/net6 G497 VDD VDD pmos W=0.41u L=0.04u
M144 AND2_144/net6 G496 VDD VDD pmos W=0.41u L=0.04u
M145 G494 AND2_143/net6 VSS VSS nmos W=0.31u L=0.04u
M146 AND2_143/X_u2-net6 G493 VSS VSS nmos W=0.31u L=0.04u
M147 AND2_143/net6 G492 AND2_143/X_u2-net6 VSS nmos W=0.31u L=0.04u
M148 G494 AND2_143/net6 VDD VDD pmos W=0.41u L=0.04u
M149 AND2_143/net6 G493 VDD VDD pmos W=0.41u L=0.04u
M150 AND2_143/net6 G492 VDD VDD pmos W=0.41u L=0.04u
M151 G477 AND2_135/net6 VSS VSS nmos W=0.31u L=0.04u
M152 AND2_135/X_u2-net6 n53 VSS VSS nmos W=0.31u L=0.04u
M153 AND2_135/net6 G473 AND2_135/X_u2-net6 VSS nmos W=0.31u L=0.04u
M154 G477 AND2_135/net6 VDD VDD pmos W=0.41u L=0.04u
M155 AND2_135/net6 n53 VDD VDD pmos W=0.41u L=0.04u
M156 AND2_135/net6 G473 VDD VDD pmos W=0.41u L=0.04u
M157 G469 AND2_133/net6 VSS VSS nmos W=0.31u L=0.04u
M158 AND2_133/X_u2-net6 n53 VSS VSS nmos W=0.31u L=0.04u
M159 AND2_133/net6 G470 AND2_133/X_u2-net6 VSS nmos W=0.31u L=0.04u
M160 G469 AND2_133/net6 VDD VDD pmos W=0.41u L=0.04u
M161 AND2_133/net6 n53 VDD VDD pmos W=0.41u L=0.04u
M162 AND2_133/net6 G470 VDD VDD pmos W=0.41u L=0.04u
M163 G464 AND2_131/net6 VSS VSS nmos W=0.31u L=0.04u
M164 AND2_131/X_u2-net6 n53 VSS VSS nmos W=0.31u L=0.04u
M165 AND2_131/net6 G465 AND2_131/X_u2-net6 VSS nmos W=0.31u L=0.04u
M166 G464 AND2_131/net6 VDD VDD pmos W=0.41u L=0.04u
M167 AND2_131/net6 n53 VDD VDD pmos W=0.41u L=0.04u
M168 AND2_131/net6 G465 VDD VDD pmos W=0.41u L=0.04u
M169 G459 AND2_129/net6 VSS VSS nmos W=0.31u L=0.04u
M170 AND2_129/X_u2-net6 n53 VSS VSS nmos W=0.31u L=0.04u
M171 AND2_129/net6 G460 AND2_129/X_u2-net6 VSS nmos W=0.31u L=0.04u
M172 G459 AND2_129/net6 VDD VDD pmos W=0.41u L=0.04u
M173 AND2_129/net6 n53 VDD VDD pmos W=0.41u L=0.04u
M174 AND2_129/net6 G460 VDD VDD pmos W=0.41u L=0.04u
M175 G451 AND2_127/net6 VSS VSS nmos W=0.31u L=0.04u
M176 AND2_127/X_u2-net6 G14 VSS VSS nmos W=0.31u L=0.04u
M177 AND2_127/net6 G452 AND2_127/X_u2-net6 VSS nmos W=0.31u L=0.04u
M178 G451 AND2_127/net6 VDD VDD pmos W=0.41u L=0.04u
M179 AND2_127/net6 G14 VDD VDD pmos W=0.41u L=0.04u
M180 AND2_127/net6 G452 VDD VDD pmos W=0.41u L=0.04u
M181 G447 AND2_126/net6 VSS VSS nmos W=0.31u L=0.04u
M182 AND2_126/X_u2-net6 G14 VSS VSS nmos W=0.31u L=0.04u
M183 AND2_126/net6 G448 AND2_126/X_u2-net6 VSS nmos W=0.31u L=0.04u
M184 G447 AND2_126/net6 VDD VDD pmos W=0.41u L=0.04u
M185 AND2_126/net6 G14 VDD VDD pmos W=0.41u L=0.04u
M186 AND2_126/net6 G448 VDD VDD pmos W=0.41u L=0.04u
M187 G441 AND2_124/net6 VSS VSS nmos W=0.31u L=0.04u
M188 AND2_124/X_u2-net6 G14 VSS VSS nmos W=0.31u L=0.04u
M189 AND2_124/net6 G442 AND2_124/X_u2-net6 VSS nmos W=0.31u L=0.04u
M190 G441 AND2_124/net6 VDD VDD pmos W=0.41u L=0.04u
M191 AND2_124/net6 G14 VDD VDD pmos W=0.41u L=0.04u
M192 AND2_124/net6 G442 VDD VDD pmos W=0.41u L=0.04u
M193 G438 AND2_123/net6 VSS VSS nmos W=0.31u L=0.04u
M194 AND2_123/X_u2-net6 G14 VSS VSS nmos W=0.31u L=0.04u
M195 AND2_123/net6 G439 AND2_123/X_u2-net6 VSS nmos W=0.31u L=0.04u
M196 G438 AND2_123/net6 VDD VDD pmos W=0.41u L=0.04u
M197 AND2_123/net6 G14 VDD VDD pmos W=0.41u L=0.04u
M198 AND2_123/net6 G439 VDD VDD pmos W=0.41u L=0.04u
M199 G427 AND2_116/net6 VSS VSS nmos W=0.31u L=0.04u
M200 AND2_116/X_u2-net6 G14 VSS VSS nmos W=0.31u L=0.04u
M201 AND2_116/net6 G428 AND2_116/X_u2-net6 VSS nmos W=0.31u L=0.04u
M202 G427 AND2_116/net6 VDD VDD pmos W=0.41u L=0.04u
M203 AND2_116/net6 G14 VDD VDD pmos W=0.41u L=0.04u
M204 AND2_116/net6 G428 VDD VDD pmos W=0.41u L=0.04u
M205 G424 AND2_114/net6 VSS VSS nmos W=0.31u L=0.04u
M206 AND2_114/X_u2-net6 n219 VSS VSS nmos W=0.31u L=0.04u
M207 AND2_114/net6 G420 AND2_114/X_u2-net6 VSS nmos W=0.31u L=0.04u
M208 G424 AND2_114/net6 VDD VDD pmos W=0.41u L=0.04u
M209 AND2_114/net6 n219 VDD VDD pmos W=0.41u L=0.04u
M210 AND2_114/net6 G420 VDD VDD pmos W=0.41u L=0.04u
M211 G416 AND2_112/net6 VSS VSS nmos W=0.31u L=0.04u
M212 AND2_112/X_u2-net6 n219 VSS VSS nmos W=0.31u L=0.04u
M213 AND2_112/net6 G417 AND2_112/X_u2-net6 VSS nmos W=0.31u L=0.04u
M214 G416 AND2_112/net6 VDD VDD pmos W=0.41u L=0.04u
M215 AND2_112/net6 n219 VDD VDD pmos W=0.41u L=0.04u
M216 AND2_112/net6 G417 VDD VDD pmos W=0.41u L=0.04u
M217 G408 AND2_107/net6 VSS VSS nmos W=0.31u L=0.04u
M218 AND2_107/X_u2-net6 G14 VSS VSS nmos W=0.31u L=0.04u
M219 AND2_107/net6 G409 AND2_107/X_u2-net6 VSS nmos W=0.31u L=0.04u
M220 G408 AND2_107/net6 VDD VDD pmos W=0.41u L=0.04u
M221 AND2_107/net6 G14 VDD VDD pmos W=0.41u L=0.04u
M222 AND2_107/net6 G409 VDD VDD pmos W=0.41u L=0.04u
M223 G405 AND2_105/net6 VSS VSS nmos W=0.31u L=0.04u
M224 AND2_105/X_u2-net6 n217 VSS VSS nmos W=0.31u L=0.04u
M225 AND2_105/net6 G401 AND2_105/X_u2-net6 VSS nmos W=0.31u L=0.04u
M226 G405 AND2_105/net6 VDD VDD pmos W=0.41u L=0.04u
M227 AND2_105/net6 n217 VDD VDD pmos W=0.41u L=0.04u
M228 AND2_105/net6 G401 VDD VDD pmos W=0.41u L=0.04u
M229 G397 AND2_103/net6 VSS VSS nmos W=0.31u L=0.04u
M230 AND2_103/X_u2-net6 n217 VSS VSS nmos W=0.31u L=0.04u
M231 AND2_103/net6 G398 AND2_103/X_u2-net6 VSS nmos W=0.31u L=0.04u
M232 G397 AND2_103/net6 VDD VDD pmos W=0.41u L=0.04u
M233 AND2_103/net6 n217 VDD VDD pmos W=0.41u L=0.04u
M234 AND2_103/net6 G398 VDD VDD pmos W=0.41u L=0.04u
M235 G392 AND2_99/net6 VSS VSS nmos W=0.31u L=0.04u
M236 AND2_99/X_u2-net6 n220 VSS VSS nmos W=0.31u L=0.04u
M237 AND2_99/net6 G388 AND2_99/X_u2-net6 VSS nmos W=0.31u L=0.04u
M238 G392 AND2_99/net6 VDD VDD pmos W=0.41u L=0.04u
M239 AND2_99/net6 n220 VDD VDD pmos W=0.41u L=0.04u
M240 AND2_99/net6 G388 VDD VDD pmos W=0.41u L=0.04u
M241 G384 AND2_97/net6 VSS VSS nmos W=0.31u L=0.04u
M242 AND2_97/X_u2-net6 n220 VSS VSS nmos W=0.31u L=0.04u
M243 AND2_97/net6 G385 AND2_97/X_u2-net6 VSS nmos W=0.31u L=0.04u
M244 G384 AND2_97/net6 VDD VDD pmos W=0.41u L=0.04u
M245 AND2_97/net6 n220 VDD VDD pmos W=0.41u L=0.04u
M246 AND2_97/net6 G385 VDD VDD pmos W=0.41u L=0.04u
M247 G379 AND2_95/net6 VSS VSS nmos W=0.31u L=0.04u
M248 AND2_95/X_u2-net6 n220 VSS VSS nmos W=0.31u L=0.04u
M249 AND2_95/net6 G380 AND2_95/X_u2-net6 VSS nmos W=0.31u L=0.04u
M250 G379 AND2_95/net6 VDD VDD pmos W=0.41u L=0.04u
M251 AND2_95/net6 n220 VDD VDD pmos W=0.41u L=0.04u
M252 AND2_95/net6 G380 VDD VDD pmos W=0.41u L=0.04u
M253 G373 AND2_91/net6 VSS VSS nmos W=0.31u L=0.04u
M254 AND2_91/X_u2-net6 n218 VSS VSS nmos W=0.31u L=0.04u
M255 AND2_91/net6 G369 AND2_91/X_u2-net6 VSS nmos W=0.31u L=0.04u
M256 G373 AND2_91/net6 VDD VDD pmos W=0.41u L=0.04u
M257 AND2_91/net6 n218 VDD VDD pmos W=0.41u L=0.04u
M258 AND2_91/net6 G369 VDD VDD pmos W=0.41u L=0.04u
M259 G365 AND2_89/net6 VSS VSS nmos W=0.31u L=0.04u
M260 AND2_89/X_u2-net6 n218 VSS VSS nmos W=0.31u L=0.04u
M261 AND2_89/net6 G366 AND2_89/X_u2-net6 VSS nmos W=0.31u L=0.04u
M262 G365 AND2_89/net6 VDD VDD pmos W=0.41u L=0.04u
M263 AND2_89/net6 n218 VDD VDD pmos W=0.41u L=0.04u
M264 AND2_89/net6 G366 VDD VDD pmos W=0.41u L=0.04u
M265 G360 AND2_87/net6 VSS VSS nmos W=0.31u L=0.04u
M266 AND2_87/X_u2-net6 n218 VSS VSS nmos W=0.31u L=0.04u
M267 AND2_87/net6 G361 AND2_87/X_u2-net6 VSS nmos W=0.31u L=0.04u
M268 G360 AND2_87/net6 VDD VDD pmos W=0.41u L=0.04u
M269 AND2_87/net6 n218 VDD VDD pmos W=0.41u L=0.04u
M270 AND2_87/net6 G361 VDD VDD pmos W=0.41u L=0.04u
M271 G321 AND2_79/net6 VSS VSS nmos W=0.31u L=0.04u
M272 AND2_79/X_u2-net6 G14 VSS VSS nmos W=0.31u L=0.04u
M273 AND2_79/net6 G322 AND2_79/X_u2-net6 VSS nmos W=0.31u L=0.04u
M274 G321 AND2_79/net6 VDD VDD pmos W=0.41u L=0.04u
M275 AND2_79/net6 G14 VDD VDD pmos W=0.41u L=0.04u
M276 AND2_79/net6 G322 VDD VDD pmos W=0.41u L=0.04u
M277 G315 AND2_77/net6 VSS VSS nmos W=0.31u L=0.04u
M278 AND2_77/X_u2-net6 G14 VSS VSS nmos W=0.31u L=0.04u
M279 AND2_77/net6 G316 AND2_77/X_u2-net6 VSS nmos W=0.31u L=0.04u
M280 G315 AND2_77/net6 VDD VDD pmos W=0.41u L=0.04u
M281 AND2_77/net6 G14 VDD VDD pmos W=0.41u L=0.04u
M282 AND2_77/net6 G316 VDD VDD pmos W=0.41u L=0.04u
M283 G309 AND2_75/net6 VSS VSS nmos W=0.31u L=0.04u
M284 AND2_75/X_u2-net6 G14 VSS VSS nmos W=0.31u L=0.04u
M285 AND2_75/net6 G310 AND2_75/X_u2-net6 VSS nmos W=0.31u L=0.04u
M286 G309 AND2_75/net6 VDD VDD pmos W=0.41u L=0.04u
M287 AND2_75/net6 G14 VDD VDD pmos W=0.41u L=0.04u
M288 AND2_75/net6 G310 VDD VDD pmos W=0.41u L=0.04u
M289 G303 AND2_73/net6 VSS VSS nmos W=0.31u L=0.04u
M290 AND2_73/X_u2-net6 G14 VSS VSS nmos W=0.31u L=0.04u
M291 AND2_73/net6 G304 AND2_73/X_u2-net6 VSS nmos W=0.31u L=0.04u
M292 G303 AND2_73/net6 VDD VDD pmos W=0.41u L=0.04u
M293 AND2_73/net6 G14 VDD VDD pmos W=0.41u L=0.04u
M294 AND2_73/net6 G304 VDD VDD pmos W=0.41u L=0.04u
M295 G260 AND2_63/net6 VSS VSS nmos W=0.31u L=0.04u
M296 AND2_63/X_u2-net6 n225 VSS VSS nmos W=0.31u L=0.04u
M297 AND2_63/net6 G256 AND2_63/X_u2-net6 VSS nmos W=0.31u L=0.04u
M298 G260 AND2_63/net6 VDD VDD pmos W=0.41u L=0.04u
M299 AND2_63/net6 n225 VDD VDD pmos W=0.41u L=0.04u
M300 AND2_63/net6 G256 VDD VDD pmos W=0.41u L=0.04u
M301 G252 AND2_60/net6 VSS VSS nmos W=0.31u L=0.04u
M302 AND2_60/X_u2-net6 n225 VSS VSS nmos W=0.31u L=0.04u
M303 AND2_60/net6 G253 AND2_60/X_u2-net6 VSS nmos W=0.31u L=0.04u
M304 G252 AND2_60/net6 VDD VDD pmos W=0.41u L=0.04u
M305 AND2_60/net6 n225 VDD VDD pmos W=0.41u L=0.04u
M306 AND2_60/net6 G253 VDD VDD pmos W=0.41u L=0.04u
M307 G247 AND2_58/net6 VSS VSS nmos W=0.31u L=0.04u
M308 AND2_58/X_u2-net6 n225 VSS VSS nmos W=0.31u L=0.04u
M309 AND2_58/net6 G248 AND2_58/X_u2-net6 VSS nmos W=0.31u L=0.04u
M310 G247 AND2_58/net6 VDD VDD pmos W=0.41u L=0.04u
M311 AND2_58/net6 n225 VDD VDD pmos W=0.41u L=0.04u
M312 AND2_58/net6 G248 VDD VDD pmos W=0.41u L=0.04u
M313 G242 AND2_56/net6 VSS VSS nmos W=0.31u L=0.04u
M314 AND2_56/X_u2-net6 n225 VSS VSS nmos W=0.31u L=0.04u
M315 AND2_56/net6 G243 AND2_56/X_u2-net6 VSS nmos W=0.31u L=0.04u
M316 G242 AND2_56/net6 VDD VDD pmos W=0.41u L=0.04u
M317 AND2_56/net6 n225 VDD VDD pmos W=0.41u L=0.04u
M318 AND2_56/net6 G243 VDD VDD pmos W=0.41u L=0.04u
M319 G237 AND2_54/net6 VSS VSS nmos W=0.31u L=0.04u
M320 AND2_54/X_u2-net6 n225 VSS VSS nmos W=0.31u L=0.04u
M321 AND2_54/net6 G238 AND2_54/X_u2-net6 VSS nmos W=0.31u L=0.04u
M322 G237 AND2_54/net6 VDD VDD pmos W=0.41u L=0.04u
M323 AND2_54/net6 n225 VDD VDD pmos W=0.41u L=0.04u
M324 AND2_54/net6 G238 VDD VDD pmos W=0.41u L=0.04u
M325 G218 AND2_44/net6 VSS VSS nmos W=0.31u L=0.04u
M326 AND2_44/X_u2-net6 G14 VSS VSS nmos W=0.31u L=0.04u
M327 AND2_44/net6 G219 AND2_44/X_u2-net6 VSS nmos W=0.31u L=0.04u
M328 G218 AND2_44/net6 VDD VDD pmos W=0.41u L=0.04u
M329 AND2_44/net6 G14 VDD VDD pmos W=0.41u L=0.04u
M330 AND2_44/net6 G219 VDD VDD pmos W=0.41u L=0.04u
M331 G214 AND2_43/net6 VSS VSS nmos W=0.31u L=0.04u
M332 AND2_43/X_u2-net6 G14 VSS VSS nmos W=0.31u L=0.04u
M333 AND2_43/net6 n221 AND2_43/X_u2-net6 VSS nmos W=0.31u L=0.04u
M334 G214 AND2_43/net6 VDD VDD pmos W=0.41u L=0.04u
M335 AND2_43/net6 G14 VDD VDD pmos W=0.41u L=0.04u
M336 AND2_43/net6 n221 VDD VDD pmos W=0.41u L=0.04u
M337 G208 AND2_42/net6 VSS VSS nmos W=0.31u L=0.04u
M338 AND2_42/X_u2-net6 G14 VSS VSS nmos W=0.31u L=0.04u
M339 AND2_42/net6 n216 AND2_42/X_u2-net6 VSS nmos W=0.31u L=0.04u
M340 G208 AND2_42/net6 VDD VDD pmos W=0.41u L=0.04u
M341 AND2_42/net6 G14 VDD VDD pmos W=0.41u L=0.04u
M342 AND2_42/net6 n216 VDD VDD pmos W=0.41u L=0.04u
M343 G198 AND2_38/net6 VSS VSS nmos W=0.31u L=0.04u
M344 AND2_38/X_u2-net6 G14 VSS VSS nmos W=0.31u L=0.04u
M345 AND2_38/net6 G199 AND2_38/X_u2-net6 VSS nmos W=0.31u L=0.04u
M346 G198 AND2_38/net6 VDD VDD pmos W=0.41u L=0.04u
M347 AND2_38/net6 G14 VDD VDD pmos W=0.41u L=0.04u
M348 AND2_38/net6 G199 VDD VDD pmos W=0.41u L=0.04u
M349 G193 AND2_36/net6 VSS VSS nmos W=0.31u L=0.04u
M350 AND2_36/X_u2-net6 G14 VSS VSS nmos W=0.31u L=0.04u
M351 AND2_36/net6 G194 AND2_36/X_u2-net6 VSS nmos W=0.31u L=0.04u
M352 G193 AND2_36/net6 VDD VDD pmos W=0.41u L=0.04u
M353 AND2_36/net6 G14 VDD VDD pmos W=0.41u L=0.04u
M354 AND2_36/net6 G194 VDD VDD pmos W=0.41u L=0.04u
M355 G189 AND2_35/net6 VSS VSS nmos W=0.31u L=0.04u
M356 AND2_35/X_u2-net6 G14 VSS VSS nmos W=0.31u L=0.04u
M357 AND2_35/net6 n222 AND2_35/X_u2-net6 VSS nmos W=0.31u L=0.04u
M358 G189 AND2_35/net6 VDD VDD pmos W=0.41u L=0.04u
M359 AND2_35/net6 G14 VDD VDD pmos W=0.41u L=0.04u
M360 AND2_35/net6 n222 VDD VDD pmos W=0.41u L=0.04u
M361 G175 AND2_33/net6 VSS VSS nmos W=0.31u L=0.04u
M362 AND2_33/X_u2-net6 G14 VSS VSS nmos W=0.31u L=0.04u
M363 AND2_33/net6 G176 AND2_33/X_u2-net6 VSS nmos W=0.31u L=0.04u
M364 G175 AND2_33/net6 VDD VDD pmos W=0.41u L=0.04u
M365 AND2_33/net6 G14 VDD VDD pmos W=0.41u L=0.04u
M366 AND2_33/net6 G176 VDD VDD pmos W=0.41u L=0.04u
M367 G166 AND2_26/net6 VSS VSS nmos W=0.31u L=0.04u
M368 AND2_26/X_u2-net6 G14 VSS VSS nmos W=0.31u L=0.04u
M369 AND2_26/net6 n215 AND2_26/X_u2-net6 VSS nmos W=0.31u L=0.04u
M370 G166 AND2_26/net6 VDD VDD pmos W=0.41u L=0.04u
M371 AND2_26/net6 G14 VDD VDD pmos W=0.41u L=0.04u
M372 AND2_26/net6 n215 VDD VDD pmos W=0.41u L=0.04u
M373 G159 AND2_24/net6 VSS VSS nmos W=0.31u L=0.04u
M374 AND2_24/X_u2-net6 G14 VSS VSS nmos W=0.31u L=0.04u
M375 AND2_24/net6 G160 AND2_24/X_u2-net6 VSS nmos W=0.31u L=0.04u
M376 G159 AND2_24/net6 VDD VDD pmos W=0.41u L=0.04u
M377 AND2_24/net6 G14 VDD VDD pmos W=0.41u L=0.04u
M378 AND2_24/net6 G160 VDD VDD pmos W=0.41u L=0.04u
M379 G154 AND2_22/net6 VSS VSS nmos W=0.31u L=0.04u
M380 AND2_22/X_u2-net6 G14 VSS VSS nmos W=0.31u L=0.04u
M381 AND2_22/net6 G155 AND2_22/X_u2-net6 VSS nmos W=0.31u L=0.04u
M382 G154 AND2_22/net6 VDD VDD pmos W=0.41u L=0.04u
M383 AND2_22/net6 G14 VDD VDD pmos W=0.41u L=0.04u
M384 AND2_22/net6 G155 VDD VDD pmos W=0.41u L=0.04u
M385 G149 AND2_20/net6 VSS VSS nmos W=0.31u L=0.04u
M386 AND2_20/X_u2-net6 G14 VSS VSS nmos W=0.31u L=0.04u
M387 AND2_20/net6 G150 AND2_20/X_u2-net6 VSS nmos W=0.31u L=0.04u
M388 G149 AND2_20/net6 VDD VDD pmos W=0.41u L=0.04u
M389 AND2_20/net6 G14 VDD VDD pmos W=0.41u L=0.04u
M390 AND2_20/net6 G150 VDD VDD pmos W=0.41u L=0.04u
M391 G144 AND2_18/net6 VSS VSS nmos W=0.31u L=0.04u
M392 AND2_18/X_u2-net6 G14 VSS VSS nmos W=0.31u L=0.04u
M393 AND2_18/net6 G145 AND2_18/X_u2-net6 VSS nmos W=0.31u L=0.04u
M394 G144 AND2_18/net6 VDD VDD pmos W=0.41u L=0.04u
M395 AND2_18/net6 G14 VDD VDD pmos W=0.41u L=0.04u
M396 AND2_18/net6 G145 VDD VDD pmos W=0.41u L=0.04u
M397 G140 AND2_17/net6 VSS VSS nmos W=0.31u L=0.04u
M398 AND2_17/X_u2-net6 G14 VSS VSS nmos W=0.31u L=0.04u
M399 AND2_17/net6 n214 AND2_17/X_u2-net6 VSS nmos W=0.31u L=0.04u
M400 G140 AND2_17/net6 VDD VDD pmos W=0.41u L=0.04u
M401 AND2_17/net6 G14 VDD VDD pmos W=0.41u L=0.04u
M402 AND2_17/net6 n214 VDD VDD pmos W=0.41u L=0.04u
M403 G129 AND2_11/net6 VSS VSS nmos W=0.31u L=0.04u
M404 AND2_11/X_u2-net6 G14 VSS VSS nmos W=0.31u L=0.04u
M405 AND2_11/net6 G130 AND2_11/X_u2-net6 VSS nmos W=0.31u L=0.04u
M406 G129 AND2_11/net6 VDD VDD pmos W=0.41u L=0.04u
M407 AND2_11/net6 G14 VDD VDD pmos W=0.41u L=0.04u
M408 AND2_11/net6 G130 VDD VDD pmos W=0.41u L=0.04u
M409 G125 AND2_10/net6 VSS VSS nmos W=0.31u L=0.04u
M410 AND2_10/X_u2-net6 G14 VSS VSS nmos W=0.31u L=0.04u
M411 AND2_10/net6 n213 AND2_10/X_u2-net6 VSS nmos W=0.31u L=0.04u
M412 G125 AND2_10/net6 VDD VDD pmos W=0.41u L=0.04u
M413 AND2_10/net6 G14 VDD VDD pmos W=0.41u L=0.04u
M414 AND2_10/net6 n213 VDD VDD pmos W=0.41u L=0.04u
M415 G118 AND2_8/net6 VSS VSS nmos W=0.31u L=0.04u
M416 AND2_8/X_u2-net6 G14 VSS VSS nmos W=0.31u L=0.04u
M417 AND2_8/net6 G119 AND2_8/X_u2-net6 VSS nmos W=0.31u L=0.04u
M418 G118 AND2_8/net6 VDD VDD pmos W=0.41u L=0.04u
M419 AND2_8/net6 G14 VDD VDD pmos W=0.41u L=0.04u
M420 AND2_8/net6 G119 VDD VDD pmos W=0.41u L=0.04u
M421 G113 AND2_6/net6 VSS VSS nmos W=0.31u L=0.04u
M422 AND2_6/X_u2-net6 G14 VSS VSS nmos W=0.31u L=0.04u
M423 AND2_6/net6 G114 AND2_6/X_u2-net6 VSS nmos W=0.31u L=0.04u
M424 G113 AND2_6/net6 VDD VDD pmos W=0.41u L=0.04u
M425 AND2_6/net6 G14 VDD VDD pmos W=0.41u L=0.04u
M426 AND2_6/net6 G114 VDD VDD pmos W=0.41u L=0.04u
M427 G109 AND2_5/net6 VSS VSS nmos W=0.31u L=0.04u
M428 AND2_5/X_u2-net6 G14 VSS VSS nmos W=0.31u L=0.04u
M429 AND2_5/net6 n212 AND2_5/X_u2-net6 VSS nmos W=0.31u L=0.04u
M430 G109 AND2_5/net6 VDD VDD pmos W=0.41u L=0.04u
M431 AND2_5/net6 G14 VDD VDD pmos W=0.41u L=0.04u
M432 AND2_5/net6 n212 VDD VDD pmos W=0.41u L=0.04u
M433 G328BF n211 VSS VSS nmos W=0.31u L=0.04u
M434 G328BF n211 VDD VDD pmos W=0.41u L=0.04u
M435 G332BF N38 VSS VSS nmos W=0.31u L=0.04u
M436 G332BF N38 VDD VDD pmos W=0.41u L=0.04u
M437 U262/net19 G90 VSS VSS nmos W=0.155u L=0.04u
M438 n225 G90 U262/net40 VSS nmos W=0.155u L=0.04u
M439 n225 U262/net19 U262/net36 VSS nmos W=0.155u L=0.04u
M440 U262/net40 n226 VSS VSS nmos W=0.31u L=0.04u
M441 U262/net36 G7 VSS VSS nmos W=0.155u L=0.04u
M442 U262/net19 G90 VDD VDD pmos W=0.205u L=0.04u
M443 n225 U262/net19 U262/net26 VDD pmos W=0.325u L=0.04u
M444 U262/net26 n226 VDD VDD pmos W=0.41u L=0.04u
M445 n225 G90 U262/net30 VDD pmos W=0.325u L=0.04u
M446 U262/net30 G7 VDD VDD pmos W=0.205u L=0.04u
M447 U263/net19 G90 VSS VSS nmos W=0.155u L=0.04u
M448 n224 G90 U263/net40 VSS nmos W=0.155u L=0.04u
M449 n224 U263/net19 U263/net36 VSS nmos W=0.155u L=0.04u
M450 U263/net40 n226 VSS VSS nmos W=0.31u L=0.04u
M451 U263/net36 G9 VSS VSS nmos W=0.155u L=0.04u
M452 U263/net19 G90 VDD VDD pmos W=0.205u L=0.04u
M453 n224 U263/net19 U263/net26 VDD pmos W=0.325u L=0.04u
M454 U263/net26 n226 VDD VDD pmos W=0.41u L=0.04u
M455 n224 G90 U263/net30 VDD pmos W=0.325u L=0.04u
M456 U263/net30 G9 VDD VDD pmos W=0.205u L=0.04u
M457 U264/net15 n231 VSS VSS nmos W=0.155u L=0.04u
M458 U264/net15 n230 VSS VSS nmos W=0.155u L=0.04u
M459 n223 n229 U264/net15 VSS nmos W=0.155u L=0.04u
M460 n223 n228 U264/net15 VSS nmos W=0.155u L=0.04u
M461 U264/net15 n232 VSS VSS nmos W=0.155u L=0.04u
M462 n223 n227 U264/net15 VSS nmos W=0.155u L=0.04u
M463 n223 n232 U264/XI1-net11 VDD pmos W=0.205u L=0.04u
M464 U264/XI1-net11 n231 U264/XI1-net18 VDD pmos W=0.205u L=0.04u
M465 U264/XI1-net18 n230 VDD VDD pmos W=0.205u L=0.04u
M466 n223 n229 U264/XI7-net11 VDD pmos W=0.205u L=0.04u
M467 U264/XI7-net11 n228 U264/XI7-net18 VDD pmos W=0.205u L=0.04u
M468 U264/XI7-net18 n227 VDD VDD pmos W=0.205u L=0.04u
M469 U265/net19 G90 VSS VSS nmos W=0.155u L=0.04u
M470 n230 G90 U265/net40 VSS nmos W=0.155u L=0.04u
M471 n230 U265/net19 U265/net36 VSS nmos W=0.155u L=0.04u
M472 U265/net40 n233 VSS VSS nmos W=0.31u L=0.04u
M473 U265/net36 G35 VSS VSS nmos W=0.155u L=0.04u
M474 U265/net19 G90 VDD VDD pmos W=0.205u L=0.04u
M475 n230 U265/net19 U265/net26 VDD pmos W=0.325u L=0.04u
M476 U265/net26 n233 VDD VDD pmos W=0.41u L=0.04u
M477 n230 G90 U265/net30 VDD pmos W=0.325u L=0.04u
M478 U265/net30 G35 VDD VDD pmos W=0.205u L=0.04u
M479 n233 U266/net28 VSS VSS nmos W=0.155u L=0.04u
M480 U266/net47 G62 VSS VSS nmos W=0.155u L=0.04u
M481 U266/net28 U266/net6 U266/net47 VSS nmos W=0.155u L=0.04u
M482 U266/net44 G59 VSS VSS nmos W=0.155u L=0.04u
M483 U266/net28 n234 U266/net44 VSS nmos W=0.155u L=0.04u
M484 U266/net6 n234 VSS VSS nmos W=0.155u L=0.04u
M485 n233 U266/net28 VDD VDD pmos W=0.205u L=0.04u
M486 VDD G62 U266/net47 VDD pmos W=0.205u L=0.04u
M487 U266/net47 n234 U266/net28 VDD pmos W=0.205u L=0.04u
M488 U266/net44 U266/net6 U266/net28 VDD pmos W=0.205u L=0.04u
M489 VDD G59 U266/net44 VDD pmos W=0.205u L=0.04u
M490 VDD n234 U266/net6 VDD pmos W=0.205u L=0.04u
M491 n229 n235 U267/net27 VSS nmos W=0.155u L=0.04u
M492 U267/net27 n236 VSS VSS nmos W=0.155u L=0.04u
M493 n229 n237 VSS VSS nmos W=0.155u L=0.04u
M494 n229 n236 U267/net13 VDD pmos W=0.205u L=0.04u
M495 U267/net13 n237 VDD VDD pmos W=0.205u L=0.04u
M496 n229 n235 U267/net13 VDD pmos W=0.205u L=0.04u
M497 U268/net36 n239 U268/net24 VSS nmos W=0.155u L=0.04u
M498 U268/net24 n240 VSS VSS nmos W=0.155u L=0.04u
M499 n236 G42 U268/net36 VSS nmos W=0.155u L=0.04u
M500 n236 n238 U268/net36 VSS nmos W=0.155u L=0.04u
M501 n236 n238 U268/net35 VDD pmos W=0.205u L=0.04u
M502 U268/net35 G42 VDD VDD pmos W=0.205u L=0.04u
M503 n236 n240 VDD VDD pmos W=0.205u L=0.04u
M504 n236 n239 VDD VDD pmos W=0.205u L=0.04u
M505 U269/net7 n241 U269/X_u4-net10 VSS nmos W=0.155u L=0.04u
M506 U269/X_u4-net10 n242 U269/X_u4-net13 VSS nmos W=0.155u L=0.04u
M507 U269/X_u4-net13 n243 VSS VSS nmos W=0.155u L=0.04u
M508 n240 U269/net7 VSS VSS nmos W=0.155u L=0.04u
M509 U269/net7 n243 VDD VDD pmos W=0.205u L=0.04u
M510 U269/net7 n241 VDD VDD pmos W=0.205u L=0.04u
M511 U269/net7 n242 VDD VDD pmos W=0.205u L=0.04u
M512 n240 U269/net7 VDD VDD pmos W=0.205u L=0.04u
M513 n241 n244 VSS VSS nmos W=0.135u L=0.04u
M514 n241 n244 VDD VDD pmos W=0.205u L=0.04u
M515 U271/net19 G90 VSS VSS nmos W=0.155u L=0.04u
M516 n235 G90 U271/net40 VSS nmos W=0.155u L=0.04u
M517 n235 U271/net19 U271/net36 VSS nmos W=0.155u L=0.04u
M518 U271/net40 n245 VSS VSS nmos W=0.31u L=0.04u
M519 U271/net36 G5 VSS VSS nmos W=0.155u L=0.04u
M520 U271/net19 G90 VDD VDD pmos W=0.205u L=0.04u
M521 n235 U271/net19 U271/net26 VDD pmos W=0.325u L=0.04u
M522 U271/net26 n245 VDD VDD pmos W=0.41u L=0.04u
M523 n235 G90 U271/net30 VDD pmos W=0.325u L=0.04u
M524 U271/net30 G5 VDD VDD pmos W=0.205u L=0.04u
M525 n245 n246 VSS VSS nmos W=0.135u L=0.04u
M526 n245 n246 VDD VDD pmos W=0.205u L=0.04u
M527 n227 n231 VSS VSS nmos W=0.155u L=0.04u
M528 n227 n232 VSS VSS nmos W=0.155u L=0.04u
M529 U273/XI1-net8 n232 VDD VDD pmos W=0.205u L=0.04u
M530 n227 n231 U273/XI1-net8 VDD pmos W=0.205u L=0.04u
M531 n231 G6 VSS VSS nmos W=0.155u L=0.04u
M532 n231 G90 VSS VSS nmos W=0.155u L=0.04u
M533 U274/XI1-net8 G90 VDD VDD pmos W=0.205u L=0.04u
M534 n231 G6 U274/XI1-net8 VDD pmos W=0.205u L=0.04u
M535 n222 U275/net26 VDD VDD pmos W=0.205u L=0.04u
M536 U275/net26 G36 U275/net19 VDD pmos W=0.205u L=0.04u
M537 U275/net26 n247 U275/net19 VDD pmos W=0.205u L=0.04u
M538 U275/net26 G91 U275/net19 VDD pmos W=0.205u L=0.04u
M539 U275/net19 n248 VDD VDD pmos W=0.205u L=0.04u
M540 U275/net26 n248 VSS VSS nmos W=0.155u L=0.04u
M541 n222 U275/net26 VSS VSS nmos W=0.155u L=0.04u
M542 U275/XI20-net13 G91 VSS VSS nmos W=0.155u L=0.04u
M543 U275/net26 G36 U275/XI20-net17 VSS nmos W=0.155u L=0.04u
M544 U275/XI20-net17 n247 U275/XI20-net13 VSS nmos W=0.155u L=0.04u
M545 U276/net32 G40 VSS VSS nmos W=0.155u L=0.04u
M546 U276/net59 n249 U276/net32 VSS nmos W=0.155u L=0.04u
M547 U276/net59 n250 VSS VSS nmos W=0.155u L=0.04u