.SUBCKT s15850 CK g100 g101 g102 g103 g10336 g10339 g104 g10402 g10405 g10408 g10411 g10414 g10417 g10515 g10712 g109 g11163 g10583 g11489 g1170 g1173 g1176 g1179 g1182 g1185 g1188 g1191 g1194 g1197 g1200 g1203 g1696 g1700 g1712 g18 g1957 g1960 g1961 g23 g578 g587 g588 g589 g579 g580 g581 g582 g583 g584 g585 g586 g865 g27 g28 g29 g2986 g30 g3007 g3069 g31 g3327 g41 g2791 g754 g758 g762 g766 g770 g774 g778 g782 g786 g790 g886 g889 g892 g895 g898 g925 g901 g904 g907 g42 g910 g913 g916 g919 g922 g43 g44 g45 g46 g47 g48 g872 g873 g3407 g3418 g6919 g82 g83 g84 g85 g86 g87 g88 g89 g90 g91 g92 g93 g94 g95 g96 g99 g5287 g3399 g3414 g3425 g3431 g3435 g3438 g741 g742 g743 g744 g750 g8203 g8206 g8210 g8214 g8221 g8226 g8230 g8236 g8200 g8241 g8187 g877 g881 g8817 g8806 g8810 g8811 g8812 g8813 g8814 g8815 g8816 g8818 g8819 g9931 VDD VSS 
M1 g7296 OR2_584/net7 VSS VSS nmos W=0.31u L=0.04u
M2 OR2_584/net7 g7131 VSS VSS nmos W=0.155u L=0.04u
M3 OR2_584/net7 g6322 VSS VSS nmos W=0.155u L=0.04u
M4 g7296 OR2_584/net7 VDD VDD pmos W=0.41u L=0.04u
M5 OR2_584/X_u7-net8 g6322 VDD VDD pmos W=0.41u L=0.04u
M6 OR2_584/net7 g7131 OR2_584/X_u7-net8 VDD pmos W=0.41u L=0.04u
M7 g7302 OR2_573/net7 VSS VSS nmos W=0.31u L=0.04u
M8 OR2_573/net7 g7141 VSS VSS nmos W=0.155u L=0.04u
M9 OR2_573/net7 g6328 VSS VSS nmos W=0.155u L=0.04u
M10 g7302 OR2_573/net7 VDD VDD pmos W=0.41u L=0.04u
M11 OR2_573/X_u7-net8 g6328 VDD VDD pmos W=0.41u L=0.04u
M12 OR2_573/net7 g7141 OR2_573/X_u7-net8 VDD pmos W=0.41u L=0.04u
M13 g8432 OR2_560/net7 VSS VSS nmos W=0.31u L=0.04u
M14 OR2_560/net7 g8389 VSS VSS nmos W=0.155u L=0.04u
M15 OR2_560/net7 g8072 VSS VSS nmos W=0.155u L=0.04u
M16 g8432 OR2_560/net7 VDD VDD pmos W=0.41u L=0.04u
M17 OR2_560/X_u7-net8 g8072 VDD VDD pmos W=0.41u L=0.04u
M18 OR2_560/net7 g8389 OR2_560/X_u7-net8 VDD pmos W=0.41u L=0.04u
M19 g11324 OR2_539/net7 VSS VSS nmos W=0.31u L=0.04u
M20 OR2_539/net7 g11271 VSS VSS nmos W=0.155u L=0.04u
M21 OR2_539/net7 g11164 VSS VSS nmos W=0.155u L=0.04u
M22 g11324 OR2_539/net7 VDD VDD pmos W=0.41u L=0.04u
M23 OR2_539/X_u7-net8 g11164 VDD VDD pmos W=0.41u L=0.04u
M24 OR2_539/net7 g11271 OR2_539/X_u7-net8 VDD pmos W=0.41u L=0.04u
M25 g11262 OR2_525/net7 VSS VSS nmos W=0.31u L=0.04u
M26 OR2_525/net7 g11240 VSS VSS nmos W=0.155u L=0.04u
M27 OR2_525/net7 g11024 VSS VSS nmos W=0.155u L=0.04u
M28 g11262 OR2_525/net7 VDD VDD pmos W=0.41u L=0.04u
M29 OR2_525/X_u7-net8 g11024 VDD VDD pmos W=0.41u L=0.04u
M30 OR2_525/net7 g11240 OR2_525/X_u7-net8 VDD pmos W=0.41u L=0.04u
M31 g8434 OR2_521/net7 VSS VSS nmos W=0.31u L=0.04u
M32 OR2_521/net7 g8400 VSS VSS nmos W=0.155u L=0.04u
M33 OR2_521/net7 g8074 VSS VSS nmos W=0.155u L=0.04u
M34 g8434 OR2_521/net7 VDD VDD pmos W=0.41u L=0.04u
M35 OR2_521/X_u7-net8 g8074 VDD VDD pmos W=0.41u L=0.04u
M36 OR2_521/net7 g8400 OR2_521/X_u7-net8 VDD pmos W=0.41u L=0.04u
M37 g11325 OR2_505/net7 VSS VSS nmos W=0.31u L=0.04u
M38 OR2_505/net7 g11295 VSS VSS nmos W=0.155u L=0.04u
M39 OR2_505/net7 g11165 VSS VSS nmos W=0.155u L=0.04u
M40 g11325 OR2_505/net7 VDD VDD pmos W=0.41u L=0.04u
M41 OR2_505/X_u7-net8 g11165 VDD VDD pmos W=0.41u L=0.04u
M42 OR2_505/net7 g11295 OR2_505/X_u7-net8 VDD pmos W=0.41u L=0.04u
M43 g11332 OR2_486/net7 VSS VSS nmos W=0.31u L=0.04u
M44 OR2_486/net7 g11273 VSS VSS nmos W=0.155u L=0.04u
M45 OR2_486/net7 g11172 VSS VSS nmos W=0.155u L=0.04u
M46 g11332 OR2_486/net7 VDD VDD pmos W=0.41u L=0.04u
M47 OR2_486/X_u7-net8 g11172 VDD VDD pmos W=0.41u L=0.04u
M48 OR2_486/net7 g11273 OR2_486/X_u7-net8 VDD pmos W=0.41u L=0.04u
M49 g11263 OR2_484/net7 VSS VSS nmos W=0.31u L=0.04u
M50 OR2_484/net7 g11187 VSS VSS nmos W=0.155u L=0.04u
M51 OR2_484/net7 g11025 VSS VSS nmos W=0.155u L=0.04u
M52 g11263 OR2_484/net7 VDD VDD pmos W=0.41u L=0.04u
M53 OR2_484/X_u7-net8 g11025 VDD VDD pmos W=0.41u L=0.04u
M54 OR2_484/net7 g11187 OR2_484/X_u7-net8 VDD pmos W=0.41u L=0.04u
M55 g7300 OR2_470/net7 VSS VSS nmos W=0.31u L=0.04u
M56 OR2_470/net7 g7139 VSS VSS nmos W=0.155u L=0.04u
M57 OR2_470/net7 g6326 VSS VSS nmos W=0.155u L=0.04u
M58 g7300 OR2_470/net7 VDD VDD pmos W=0.41u L=0.04u
M59 OR2_470/X_u7-net8 g6326 VDD VDD pmos W=0.41u L=0.04u
M60 OR2_470/net7 g7139 OR2_470/X_u7-net8 VDD pmos W=0.41u L=0.04u
M61 g11328 OR2_464/net7 VSS VSS nmos W=0.31u L=0.04u
M62 OR2_464/net7 g11299 VSS VSS nmos W=0.155u L=0.04u
M63 OR2_464/net7 g11168 VSS VSS nmos W=0.155u L=0.04u
M64 g11328 OR2_464/net7 VDD VDD pmos W=0.41u L=0.04u
M65 OR2_464/X_u7-net8 g11168 VDD VDD pmos W=0.41u L=0.04u
M66 OR2_464/net7 g11299 OR2_464/X_u7-net8 VDD pmos W=0.41u L=0.04u
M67 g11329 OR2_462/net7 VSS VSS nmos W=0.31u L=0.04u
M68 OR2_462/net7 g11302 VSS VSS nmos W=0.155u L=0.04u
M69 OR2_462/net7 g11169 VSS VSS nmos W=0.155u L=0.04u
M70 g11329 OR2_462/net7 VDD VDD pmos W=0.41u L=0.04u
M71 OR2_462/X_u7-net8 g11169 VDD VDD pmos W=0.41u L=0.04u
M72 OR2_462/net7 g11302 OR2_462/X_u7-net8 VDD pmos W=0.41u L=0.04u
M73 g8430 OR2_452/net7 VSS VSS nmos W=0.31u L=0.04u
M74 OR2_452/net7 g8386 VSS VSS nmos W=0.155u L=0.04u
M75 OR2_452/net7 g8070 VSS VSS nmos W=0.155u L=0.04u
M76 g8430 OR2_452/net7 VDD VDD pmos W=0.41u L=0.04u
M77 OR2_452/X_u7-net8 g8070 VDD VDD pmos W=0.41u L=0.04u
M78 OR2_452/net7 g8386 OR2_452/X_u7-net8 VDD pmos W=0.41u L=0.04u
M79 g8428 OR2_451/net7 VSS VSS nmos W=0.31u L=0.04u
M80 OR2_451/net7 g8382 VSS VSS nmos W=0.155u L=0.04u
M81 OR2_451/net7 g8068 VSS VSS nmos W=0.155u L=0.04u
M82 g8428 OR2_451/net7 VDD VDD pmos W=0.41u L=0.04u
M83 OR2_451/X_u7-net8 g8068 VDD VDD pmos W=0.41u L=0.04u
M84 OR2_451/net7 g8382 OR2_451/X_u7-net8 VDD pmos W=0.41u L=0.04u
M85 g11333 OR2_436/net7 VSS VSS nmos W=0.31u L=0.04u
M86 OR2_436/net7 g11274 VSS VSS nmos W=0.155u L=0.04u
M87 OR2_436/net7 g11173 VSS VSS nmos W=0.155u L=0.04u
M88 g11333 OR2_436/net7 VDD VDD pmos W=0.41u L=0.04u
M89 OR2_436/X_u7-net8 g11173 VDD VDD pmos W=0.41u L=0.04u
M90 OR2_436/net7 g11274 OR2_436/X_u7-net8 VDD pmos W=0.41u L=0.04u
M91 g8283 OR2_427/net7 VSS VSS nmos W=0.31u L=0.04u
M92 OR2_427/net7 g8098 VSS VSS nmos W=0.155u L=0.04u
M93 OR2_427/net7 g7820 VSS VSS nmos W=0.155u L=0.04u
M94 g8283 OR2_427/net7 VDD VDD pmos W=0.41u L=0.04u
M95 OR2_427/X_u7-net8 g7820 VDD VDD pmos W=0.41u L=0.04u
M96 OR2_427/net7 g8098 OR2_427/X_u7-net8 VDD pmos W=0.41u L=0.04u
M97 g8281 OR2_395/net7 VSS VSS nmos W=0.31u L=0.04u
M98 OR2_395/net7 g8097 VSS VSS nmos W=0.155u L=0.04u
M99 OR2_395/net7 g7818 VSS VSS nmos W=0.155u L=0.04u
M100 g8281 OR2_395/net7 VDD VDD pmos W=0.41u L=0.04u
M101 OR2_395/X_u7-net8 g7818 VDD VDD pmos W=0.41u L=0.04u
M102 OR2_395/net7 g8097 OR2_395/X_u7-net8 VDD pmos W=0.41u L=0.04u
M103 g8429 OR2_393/net7 VSS VSS nmos W=0.31u L=0.04u
M104 OR2_393/net7 g8385 VSS VSS nmos W=0.155u L=0.04u
M105 OR2_393/net7 g8069 VSS VSS nmos W=0.155u L=0.04u
M106 g8429 OR2_393/net7 VDD VDD pmos W=0.41u L=0.04u
M107 OR2_393/X_u7-net8 g8069 VDD VDD pmos W=0.41u L=0.04u
M108 OR2_393/net7 g8385 OR2_393/X_u7-net8 VDD pmos W=0.41u L=0.04u
M109 g11266 OR2_390/net7 VSS VSS nmos W=0.31u L=0.04u
M110 OR2_390/net7 g11190 VSS VSS nmos W=0.155u L=0.04u
M111 OR2_390/net7 g11028 VSS VSS nmos W=0.155u L=0.04u
M112 g11266 OR2_390/net7 VDD VDD pmos W=0.41u L=0.04u
M113 OR2_390/X_u7-net8 g11028 VDD VDD pmos W=0.41u L=0.04u
M114 OR2_390/net7 g11190 OR2_390/X_u7-net8 VDD pmos W=0.41u L=0.04u
M115 g11267 OR2_376/net7 VSS VSS nmos W=0.31u L=0.04u
M116 OR2_376/net7 g11192 VSS VSS nmos W=0.155u L=0.04u
M117 OR2_376/net7 g11029 VSS VSS nmos W=0.155u L=0.04u
M118 g11267 OR2_376/net7 VDD VDD pmos W=0.41u L=0.04u
M119 OR2_376/X_u7-net8 g11029 VDD VDD pmos W=0.41u L=0.04u
M120 OR2_376/net7 g11192 OR2_376/X_u7-net8 VDD pmos W=0.41u L=0.04u
M121 g11270 OR2_372/net7 VSS VSS nmos W=0.31u L=0.04u
M122 OR2_372/net7 g11198 VSS VSS nmos W=0.155u L=0.04u
M123 OR2_372/net7 g11032 VSS VSS nmos W=0.155u L=0.04u
M124 g11270 OR2_372/net7 VDD VDD pmos W=0.41u L=0.04u
M125 OR2_372/X_u7-net8 g11032 VDD VDD pmos W=0.41u L=0.04u
M126 OR2_372/net7 g11198 OR2_372/X_u7-net8 VDD pmos W=0.41u L=0.04u
M127 g8288 OR2_368/net7 VSS VSS nmos W=0.31u L=0.04u
M128 OR2_368/net7 g8119 VSS VSS nmos W=0.155u L=0.04u
M129 OR2_368/net7 g7825 VSS VSS nmos W=0.155u L=0.04u
M130 g8288 OR2_368/net7 VDD VDD pmos W=0.41u L=0.04u
M131 OR2_368/X_u7-net8 g7825 VDD VDD pmos W=0.41u L=0.04u
M132 OR2_368/net7 g8119 OR2_368/X_u7-net8 VDD pmos W=0.41u L=0.04u
M133 g11260 OR2_362/net7 VSS VSS nmos W=0.31u L=0.04u
M134 OR2_362/net7 g11237 VSS VSS nmos W=0.155u L=0.04u
M135 OR2_362/net7 g11022 VSS VSS nmos W=0.155u L=0.04u
M136 g11260 OR2_362/net7 VDD VDD pmos W=0.41u L=0.04u
M137 OR2_362/X_u7-net8 g11022 VDD VDD pmos W=0.41u L=0.04u
M138 OR2_362/net7 g11237 OR2_362/X_u7-net8 VDD pmos W=0.41u L=0.04u
M139 g7293 OR2_350/net7 VSS VSS nmos W=0.31u L=0.04u
M140 OR2_350/net7 g7063 VSS VSS nmos W=0.155u L=0.04u
M141 OR2_350/net7 g6319 VSS VSS nmos W=0.155u L=0.04u
M142 g7293 OR2_350/net7 VDD VDD pmos W=0.41u L=0.04u
M143 OR2_350/X_u7-net8 g6319 VDD VDD pmos W=0.41u L=0.04u
M144 OR2_350/net7 g7063 OR2_350/X_u7-net8 VDD pmos W=0.41u L=0.04u
M145 g11336 OR2_346/net7 VSS VSS nmos W=0.31u L=0.04u
M146 OR2_346/net7 g11281 VSS VSS nmos W=0.155u L=0.04u
M147 OR2_346/net7 g11176 VSS VSS nmos W=0.155u L=0.04u
M148 g11336 OR2_346/net7 VDD VDD pmos W=0.41u L=0.04u
M149 OR2_346/X_u7-net8 g11176 VDD VDD pmos W=0.41u L=0.04u
M150 OR2_346/net7 g11281 OR2_346/X_u7-net8 VDD pmos W=0.41u L=0.04u
M151 g8285 OR2_338/net7 VSS VSS nmos W=0.31u L=0.04u
M152 OR2_338/net7 g8104 VSS VSS nmos W=0.155u L=0.04u
M153 OR2_338/net7 g7822 VSS VSS nmos W=0.155u L=0.04u
M154 g8285 OR2_338/net7 VDD VDD pmos W=0.41u L=0.04u
M155 OR2_338/X_u7-net8 g7822 VDD VDD pmos W=0.41u L=0.04u
M156 OR2_338/net7 g8104 OR2_338/X_u7-net8 VDD pmos W=0.41u L=0.04u
M157 g11337 OR2_332/net7 VSS VSS nmos W=0.31u L=0.04u
M158 OR2_332/net7 g11282 VSS VSS nmos W=0.155u L=0.04u
M159 OR2_332/net7 g11177 VSS VSS nmos W=0.155u L=0.04u
M160 g11337 OR2_332/net7 VDD VDD pmos W=0.41u L=0.04u
M161 OR2_332/X_u7-net8 g11177 VDD VDD pmos W=0.41u L=0.04u
M162 OR2_332/net7 g11282 OR2_332/X_u7-net8 VDD pmos W=0.41u L=0.04u
M163 g11258 OR2_326/net7 VSS VSS nmos W=0.31u L=0.04u
M164 OR2_326/net7 g11235 VSS VSS nmos W=0.155u L=0.04u
M165 OR2_326/net7 g11020 VSS VSS nmos W=0.155u L=0.04u
M166 g11258 OR2_326/net7 VDD VDD pmos W=0.41u L=0.04u
M167 OR2_326/X_u7-net8 g11020 VDD VDD pmos W=0.41u L=0.04u
M168 OR2_326/net7 g11235 OR2_326/X_u7-net8 VDD pmos W=0.41u L=0.04u
M169 g11259 OR2_323/net7 VSS VSS nmos W=0.31u L=0.04u
M170 OR2_323/net7 g11236 VSS VSS nmos W=0.155u L=0.04u
M171 OR2_323/net7 g11021 VSS VSS nmos W=0.155u L=0.04u
M172 g11259 OR2_323/net7 VDD VDD pmos W=0.41u L=0.04u
M173 OR2_323/X_u7-net8 g11021 VDD VDD pmos W=0.41u L=0.04u
M174 OR2_323/net7 g11236 OR2_323/X_u7-net8 VDD pmos W=0.41u L=0.04u
M175 g11330 OR2_316/net7 VSS VSS nmos W=0.31u L=0.04u
M176 OR2_316/net7 g11304 VSS VSS nmos W=0.155u L=0.04u
M177 OR2_316/net7 g11170 VSS VSS nmos W=0.155u L=0.04u
M178 g11330 OR2_316/net7 VDD VDD pmos W=0.41u L=0.04u
M179 OR2_316/X_u7-net8 g11170 VDD VDD pmos W=0.41u L=0.04u
M180 OR2_316/net7 g11304 OR2_316/X_u7-net8 VDD pmos W=0.41u L=0.04u
M181 g7291 OR2_313/net7 VSS VSS nmos W=0.31u L=0.04u
M182 OR2_313/net7 g7050 VSS VSS nmos W=0.155u L=0.04u
M183 OR2_313/net7 g6317 VSS VSS nmos W=0.155u L=0.04u
M184 g7291 OR2_313/net7 VDD VDD pmos W=0.41u L=0.04u
M185 OR2_313/X_u7-net8 g6317 VDD VDD pmos W=0.41u L=0.04u
M186 OR2_313/net7 g7050 OR2_313/X_u7-net8 VDD pmos W=0.41u L=0.04u
M187 g11261 OR2_302/net7 VSS VSS nmos W=0.31u L=0.04u
M188 OR2_302/net7 g11238 VSS VSS nmos W=0.155u L=0.04u
M189 OR2_302/net7 g11023 VSS VSS nmos W=0.155u L=0.04u
M190 g11261 OR2_302/net7 VDD VDD pmos W=0.41u L=0.04u
M191 OR2_302/X_u7-net8 g11023 VDD VDD pmos W=0.41u L=0.04u
M192 OR2_302/net7 g11238 OR2_302/X_u7-net8 VDD pmos W=0.41u L=0.04u
M193 g8282 OR2_289/net7 VSS VSS nmos W=0.31u L=0.04u
M194 OR2_289/net7 g8101 VSS VSS nmos W=0.155u L=0.04u
M195 OR2_289/net7 g7819 VSS VSS nmos W=0.155u L=0.04u
M196 g8282 OR2_289/net7 VDD VDD pmos W=0.41u L=0.04u
M197 OR2_289/X_u7-net8 g7819 VDD VDD pmos W=0.41u L=0.04u
M198 OR2_289/net7 g8101 OR2_289/X_u7-net8 VDD pmos W=0.41u L=0.04u
M199 g7298 OR2_286/net7 VSS VSS nmos W=0.31u L=0.04u
M200 OR2_286/net7 g7136 VSS VSS nmos W=0.155u L=0.04u
M201 OR2_286/net7 g6324 VSS VSS nmos W=0.155u L=0.04u
M202 g7298 OR2_286/net7 VDD VDD pmos W=0.41u L=0.04u
M203 OR2_286/X_u7-net8 g6324 VDD VDD pmos W=0.41u L=0.04u
M204 OR2_286/net7 g7136 OR2_286/X_u7-net8 VDD pmos W=0.41u L=0.04u
M205 g8284 OR2_261/net7 VSS VSS nmos W=0.31u L=0.04u
M206 OR2_261/net7 g8102 VSS VSS nmos W=0.155u L=0.04u
M207 OR2_261/net7 g7821 VSS VSS nmos W=0.155u L=0.04u
M208 g8284 OR2_261/net7 VDD VDD pmos W=0.41u L=0.04u
M209 OR2_261/X_u7-net8 g7821 VDD VDD pmos W=0.41u L=0.04u
M210 OR2_261/net7 g8102 OR2_261/X_u7-net8 VDD pmos W=0.41u L=0.04u
M211 g7295 OR2_255/net7 VSS VSS nmos W=0.31u L=0.04u
M212 OR2_255/net7 g7071 VSS VSS nmos W=0.155u L=0.04u
M213 OR2_255/net7 g6321 VSS VSS nmos W=0.155u L=0.04u
M214 g7295 OR2_255/net7 VDD VDD pmos W=0.41u L=0.04u
M215 OR2_255/X_u7-net8 g6321 VDD VDD pmos W=0.41u L=0.04u
M216 OR2_255/net7 g7071 OR2_255/X_u7-net8 VDD pmos W=0.41u L=0.04u
M217 g11331 OR2_254/net7 VSS VSS nmos W=0.31u L=0.04u
M218 OR2_254/net7 g11272 VSS VSS nmos W=0.155u L=0.04u
M219 OR2_254/net7 g11171 VSS VSS nmos W=0.155u L=0.04u
M220 g11331 OR2_254/net7 VDD VDD pmos W=0.41u L=0.04u
M221 OR2_254/X_u7-net8 g11171 VDD VDD pmos W=0.41u L=0.04u
M222 OR2_254/net7 g11272 OR2_254/X_u7-net8 VDD pmos W=0.41u L=0.04u
M223 g7299 OR2_225/net7 VSS VSS nmos W=0.31u L=0.04u
M224 OR2_225/net7 g7138 VSS VSS nmos W=0.155u L=0.04u
M225 OR2_225/net7 g6325 VSS VSS nmos W=0.155u L=0.04u
M226 g7299 OR2_225/net7 VDD VDD pmos W=0.41u L=0.04u
M227 OR2_225/X_u7-net8 g6325 VDD VDD pmos W=0.41u L=0.04u
M228 OR2_225/net7 g7138 OR2_225/X_u7-net8 VDD pmos W=0.41u L=0.04u
M229 g7292 OR2_213/net7 VSS VSS nmos W=0.31u L=0.04u
M230 OR2_213/net7 g7055 VSS VSS nmos W=0.155u L=0.04u
M231 OR2_213/net7 g6318 VSS VSS nmos W=0.155u L=0.04u
M232 g7292 OR2_213/net7 VDD VDD pmos W=0.41u L=0.04u
M233 OR2_213/X_u7-net8 g6318 VDD VDD pmos W=0.41u L=0.04u
M234 OR2_213/net7 g7055 OR2_213/X_u7-net8 VDD pmos W=0.41u L=0.04u
M235 g11326 OR2_204/net7 VSS VSS nmos W=0.31u L=0.04u
M236 OR2_204/net7 g11296 VSS VSS nmos W=0.155u L=0.04u
M237 OR2_204/net7 g11166 VSS VSS nmos W=0.155u L=0.04u
M238 g11326 OR2_204/net7 VDD VDD pmos W=0.41u L=0.04u
M239 OR2_204/X_u7-net8 g11166 VDD VDD pmos W=0.41u L=0.04u
M240 OR2_204/net7 g11296 OR2_204/X_u7-net8 VDD pmos W=0.41u L=0.04u
M241 g11327 OR2_188/net7 VSS VSS nmos W=0.31u L=0.04u
M242 OR2_188/net7 g11297 VSS VSS nmos W=0.155u L=0.04u
M243 OR2_188/net7 g11167 VSS VSS nmos W=0.155u L=0.04u
M244 g11327 OR2_188/net7 VDD VDD pmos W=0.41u L=0.04u
M245 OR2_188/X_u7-net8 g11167 VDD VDD pmos W=0.41u L=0.04u
M246 OR2_188/net7 g11297 OR2_188/X_u7-net8 VDD pmos W=0.41u L=0.04u
M247 g7294 OR2_180/net7 VSS VSS nmos W=0.31u L=0.04u
M248 OR2_180/net7 g7068 VSS VSS nmos W=0.155u L=0.04u
M249 OR2_180/net7 g6320 VSS VSS nmos W=0.155u L=0.04u
M250 g7294 OR2_180/net7 VDD VDD pmos W=0.41u L=0.04u
M251 OR2_180/X_u7-net8 g6320 VDD VDD pmos W=0.41u L=0.04u
M252 OR2_180/net7 g7068 OR2_180/X_u7-net8 VDD pmos W=0.41u L=0.04u
M253 g11264 OR2_169/net7 VSS VSS nmos W=0.31u L=0.04u
M254 OR2_169/net7 g11188 VSS VSS nmos W=0.155u L=0.04u
M255 OR2_169/net7 g11026 VSS VSS nmos W=0.155u L=0.04u
M256 g11264 OR2_169/net7 VDD VDD pmos W=0.41u L=0.04u
M257 OR2_169/X_u7-net8 g11026 VDD VDD pmos W=0.41u L=0.04u
M258 OR2_169/net7 g11188 OR2_169/X_u7-net8 VDD pmos W=0.41u L=0.04u
M259 g7303 OR2_160/net7 VSS VSS nmos W=0.31u L=0.04u
M260 OR2_160/net7 g7145 VSS VSS nmos W=0.155u L=0.04u
M261 OR2_160/net7 g6329 VSS VSS nmos W=0.155u L=0.04u
M262 g7303 OR2_160/net7 VDD VDD pmos W=0.41u L=0.04u
M263 OR2_160/X_u7-net8 g6329 VDD VDD pmos W=0.41u L=0.04u
M264 OR2_160/net7 g7145 OR2_160/X_u7-net8 VDD pmos W=0.41u L=0.04u
M265 g8433 OR2_138/net7 VSS VSS nmos W=0.31u L=0.04u
M266 OR2_138/net7 g8399 VSS VSS nmos W=0.155u L=0.04u
M267 OR2_138/net7 g8073 VSS VSS nmos W=0.155u L=0.04u
M268 g8433 OR2_138/net7 VDD VDD pmos W=0.41u L=0.04u
M269 OR2_138/X_u7-net8 g8073 VDD VDD pmos W=0.41u L=0.04u
M270 OR2_138/net7 g8399 OR2_138/X_u7-net8 VDD pmos W=0.41u L=0.04u
M271 g11265 OR2_131/net7 VSS VSS nmos W=0.31u L=0.04u
M272 OR2_131/net7 g11189 VSS VSS nmos W=0.155u L=0.04u
M273 OR2_131/net7 g11027 VSS VSS nmos W=0.155u L=0.04u
M274 g11265 OR2_131/net7 VDD VDD pmos W=0.41u L=0.04u
M275 OR2_131/X_u7-net8 g11027 VDD VDD pmos W=0.41u L=0.04u
M276 OR2_131/net7 g11189 OR2_131/X_u7-net8 VDD pmos W=0.41u L=0.04u
M277 g11334 OR2_115/net7 VSS VSS nmos W=0.31u L=0.04u
M278 OR2_115/net7 g11277 VSS VSS nmos W=0.155u L=0.04u
M279 OR2_115/net7 g11174 VSS VSS nmos W=0.155u L=0.04u
M280 g11334 OR2_115/net7 VDD VDD pmos W=0.41u L=0.04u
M281 OR2_115/X_u7-net8 g11174 VDD VDD pmos W=0.41u L=0.04u
M282 OR2_115/net7 g11277 OR2_115/X_u7-net8 VDD pmos W=0.41u L=0.04u
M283 g7301 OR2_111/net7 VSS VSS nmos W=0.31u L=0.04u
M284 OR2_111/net7 g7140 VSS VSS nmos W=0.155u L=0.04u
M285 OR2_111/net7 g6327 VSS VSS nmos W=0.155u L=0.04u
M286 g7301 OR2_111/net7 VDD VDD pmos W=0.41u L=0.04u
M287 OR2_111/X_u7-net8 g6327 VDD VDD pmos W=0.41u L=0.04u
M288 OR2_111/net7 g7140 OR2_111/X_u7-net8 VDD pmos W=0.41u L=0.04u
M289 g8287 OR2_102/net7 VSS VSS nmos W=0.31u L=0.04u
M290 OR2_102/net7 g8117 VSS VSS nmos W=0.155u L=0.04u
M291 OR2_102/net7 g7824 VSS VSS nmos W=0.155u L=0.04u
M292 g8287 OR2_102/net7 VDD VDD pmos W=0.41u L=0.04u
M293 OR2_102/X_u7-net8 g7824 VDD VDD pmos W=0.41u L=0.04u
M294 OR2_102/net7 g8117 OR2_102/X_u7-net8 VDD pmos W=0.41u L=0.04u
M295 g7290 OR2_92/net7 VSS VSS nmos W=0.31u L=0.04u
M296 OR2_92/net7 g7046 VSS VSS nmos W=0.155u L=0.04u
M297 OR2_92/net7 g6316 VSS VSS nmos W=0.155u L=0.04u
M298 g7290 OR2_92/net7 VDD VDD pmos W=0.41u L=0.04u
M299 OR2_92/X_u7-net8 g6316 VDD VDD pmos W=0.41u L=0.04u
M300 OR2_92/net7 g7046 OR2_92/X_u7-net8 VDD pmos W=0.41u L=0.04u
M301 g8286 OR2_88/net7 VSS VSS nmos W=0.31u L=0.04u
M302 OR2_88/net7 g8107 VSS VSS nmos W=0.155u L=0.04u
M303 OR2_88/net7 g7823 VSS VSS nmos W=0.155u L=0.04u
M304 g8286 OR2_88/net7 VDD VDD pmos W=0.41u L=0.04u
M305 OR2_88/X_u7-net8 g7823 VDD VDD pmos W=0.41u L=0.04u
M306 OR2_88/net7 g8107 OR2_88/X_u7-net8 VDD pmos W=0.41u L=0.04u
M307 g8431 OR2_79/net7 VSS VSS nmos W=0.31u L=0.04u
M308 OR2_79/net7 g8387 VSS VSS nmos W=0.155u L=0.04u
M309 OR2_79/net7 g8071 VSS VSS nmos W=0.155u L=0.04u
M310 g8431 OR2_79/net7 VDD VDD pmos W=0.41u L=0.04u
M311 OR2_79/X_u7-net8 g8071 VDD VDD pmos W=0.41u L=0.04u
M312 OR2_79/net7 g8387 OR2_79/X_u7-net8 VDD pmos W=0.41u L=0.04u
M313 g11443 OR2_75/net7 VSS VSS nmos W=0.31u L=0.04u
M314 OR2_75/net7 g7130 VSS VSS nmos W=0.155u L=0.04u
M315 OR2_75/net7 g11407 VSS VSS nmos W=0.155u L=0.04u
M316 g11443 OR2_75/net7 VDD VDD pmos W=0.41u L=0.04u
M317 OR2_75/X_u7-net8 g11407 VDD VDD pmos W=0.41u L=0.04u
M318 OR2_75/net7 g7130 OR2_75/X_u7-net8 VDD pmos W=0.41u L=0.04u
M319 g11335 OR2_69/net7 VSS VSS nmos W=0.31u L=0.04u
M320 OR2_69/net7 g11279 VSS VSS nmos W=0.155u L=0.04u
M321 OR2_69/net7 g11175 VSS VSS nmos W=0.155u L=0.04u
M322 g11335 OR2_69/net7 VDD VDD pmos W=0.41u L=0.04u
M323 OR2_69/X_u7-net8 g11175 VDD VDD pmos W=0.41u L=0.04u
M324 OR2_69/net7 g11279 OR2_69/X_u7-net8 VDD pmos W=0.41u L=0.04u
M325 g11268 OR2_64/net7 VSS VSS nmos W=0.31u L=0.04u
M326 OR2_64/net7 g11194 VSS VSS nmos W=0.155u L=0.04u
M327 OR2_64/net7 g11030 VSS VSS nmos W=0.155u L=0.04u
M328 g11268 OR2_64/net7 VDD VDD pmos W=0.41u L=0.04u
M329 OR2_64/X_u7-net8 g11030 VDD VDD pmos W=0.41u L=0.04u
M330 OR2_64/net7 g11194 OR2_64/X_u7-net8 VDD pmos W=0.41u L=0.04u
M331 g11269 OR2_62/net7 VSS VSS nmos W=0.31u L=0.04u
M332 OR2_62/net7 g11196 VSS VSS nmos W=0.155u L=0.04u
M333 OR2_62/net7 g11031 VSS VSS nmos W=0.155u L=0.04u
M334 g11269 OR2_62/net7 VDD VDD pmos W=0.41u L=0.04u
M335 OR2_62/X_u7-net8 g11031 VDD VDD pmos W=0.41u L=0.04u
M336 OR2_62/net7 g11196 OR2_62/X_u7-net8 VDD pmos W=0.41u L=0.04u
M337 g11256 OR2_38/net7 VSS VSS nmos W=0.31u L=0.04u
M338 OR2_38/net7 g11186 VSS VSS nmos W=0.155u L=0.04u
M339 OR2_38/net7 g11018 VSS VSS nmos W=0.155u L=0.04u
M340 g11256 OR2_38/net7 VDD VDD pmos W=0.41u L=0.04u
M341 OR2_38/X_u7-net8 g11018 VDD VDD pmos W=0.41u L=0.04u
M342 OR2_38/net7 g11186 OR2_38/X_u7-net8 VDD pmos W=0.41u L=0.04u
M343 g11257 OR2_29/net7 VSS VSS nmos W=0.31u L=0.04u
M344 OR2_29/net7 g11234 VSS VSS nmos W=0.155u L=0.04u
M345 OR2_29/net7 g11019 VSS VSS nmos W=0.155u L=0.04u
M346 g11257 OR2_29/net7 VDD VDD pmos W=0.41u L=0.04u
M347 OR2_29/X_u7-net8 g11019 VDD VDD pmos W=0.41u L=0.04u
M348 OR2_29/net7 g11234 OR2_29/X_u7-net8 VDD pmos W=0.41u L=0.04u
M349 g8435 OR2_17/net7 VSS VSS nmos W=0.31u L=0.04u
M350 OR2_17/net7 g8403 VSS VSS nmos W=0.155u L=0.04u
M351 OR2_17/net7 g8075 VSS VSS nmos W=0.155u L=0.04u
M352 g8435 OR2_17/net7 VDD VDD pmos W=0.41u L=0.04u
M353 OR2_17/X_u7-net8 g8075 VDD VDD pmos W=0.41u L=0.04u
M354 OR2_17/net7 g8403 OR2_17/X_u7-net8 VDD pmos W=0.41u L=0.04u
M355 g11338 OR2_16/net7 VSS VSS nmos W=0.31u L=0.04u
M356 OR2_16/net7 g11283 VSS VSS nmos W=0.155u L=0.04u
M357 OR2_16/net7 g11178 VSS VSS nmos W=0.155u L=0.04u
M358 g11338 OR2_16/net7 VDD VDD pmos W=0.41u L=0.04u
M359 OR2_16/X_u7-net8 g11178 VDD VDD pmos W=0.41u L=0.04u
M360 OR2_16/net7 g11283 OR2_16/X_u7-net8 VDD pmos W=0.41u L=0.04u
M361 g7297 OR2_3/net7 VSS VSS nmos W=0.31u L=0.04u
M362 OR2_3/net7 g7132 VSS VSS nmos W=0.155u L=0.04u
M363 OR2_3/net7 g6323 VSS VSS nmos W=0.155u L=0.04u
M364 g7297 OR2_3/net7 VDD VDD pmos W=0.41u L=0.04u
M365 OR2_3/X_u7-net8 g6323 VDD VDD pmos W=0.41u L=0.04u
M366 OR2_3/net7 g7132 OR2_3/X_u7-net8 VDD pmos W=0.41u L=0.04u
M367 g5642 n1509 VSS VSS nmos W=0.31u L=0.04u
M368 g5642 n1509 VDD VDD pmos W=0.41u L=0.04u
M369 g4899 n1509 VSS VSS nmos W=0.31u L=0.04u
M370 g4899 n1509 VDD VDD pmos W=0.41u L=0.04u
M371 g4900 n1509 VSS VSS nmos W=0.31u L=0.04u
M372 g4900 n1509 VDD VDD pmos W=0.41u L=0.04u
M373 g4217 g1700 VSS VSS nmos W=0.31u L=0.04u
M374 g4217 g1700 VDD VDD pmos W=0.41u L=0.04u
M375 g5645 I4879 VSS VSS nmos W=0.31u L=0.04u
M376 g5645 I4879 VDD VDD pmos W=0.41u L=0.04u
M377 g5649 I6789 VSS VSS nmos W=0.31u L=0.04u
M378 g5649 I6789 VDD VDD pmos W=0.41u L=0.04u
M379 g5651 I8147 VSS VSS nmos W=0.31u L=0.04u
M380 g5651 I8147 VDD VDD pmos W=0.41u L=0.04u
M381 g5652 I6815 VSS VSS nmos W=0.31u L=0.04u
M382 g5652 I6815 VDD VDD pmos W=0.41u L=0.04u
M383 g5646 I8989 VSS VSS nmos W=0.31u L=0.04u
M384 g5646 I8989 VDD VDD pmos W=0.41u L=0.04u
M385 g2044 I4850 VSS VSS nmos W=0.31u L=0.04u
M386 g2044 I4850 VDD VDD pmos W=0.41u L=0.04u
M387 g5650 I4938 VSS VSS nmos W=0.31u L=0.04u
M388 g5650 I4938 VDD VDD pmos W=0.41u L=0.04u
M389 g5643 I6726 VSS VSS nmos W=0.31u L=0.04u
M390 g5643 I6726 VDD VDD pmos W=0.41u L=0.04u
M391 g2638 I5751 VSS VSS nmos W=0.31u L=0.04u
M392 g2638 I5751 VDD VDD pmos W=0.41u L=0.04u
M393 g5648 I6784 VSS VSS nmos W=0.31u L=0.04u
M394 g5648 I6784 VDD VDD pmos W=0.41u L=0.04u
M395 g5647 I5792 VSS VSS nmos W=0.31u L=0.04u
M396 g5647 I5792 VDD VDD pmos W=0.41u L=0.04u
M397 g3329 n1250 VSS VSS nmos W=0.31u L=0.04u
M398 g3329 n1250 VDD VDD pmos W=0.41u L=0.04u
M399 g4885 n1485 VSS VSS nmos W=0.31u L=0.04u
M400 g4885 n1485 VDD VDD pmos W=0.41u L=0.04u
M401 g8275 n1259 VSS VSS nmos W=0.31u L=0.04u
M402 g8275 n1259 VDD VDD pmos W=0.41u L=0.04u
M403 g7321 n1190 VSS VSS nmos W=0.31u L=0.04u
M404 g7321 n1190 VDD VDD pmos W=0.41u L=0.04u
M405 g7315 n1503 VSS VSS nmos W=0.31u L=0.04u
M406 g7315 n1503 VDD VDD pmos W=0.41u L=0.04u
M407 g6304 n1207 VSS VSS nmos W=0.31u L=0.04u
M408 g6304 n1207 VDD VDD pmos W=0.41u L=0.04u
M409 g7330 n1374 VSS VSS nmos W=0.31u L=0.04u
M410 g7330 n1374 VDD VDD pmos W=0.41u L=0.04u
M411 g7325 n1424 VSS VSS nmos W=0.31u L=0.04u
M412 g7325 n1424 VDD VDD pmos W=0.41u L=0.04u
M413 g6836 n1492 VSS VSS nmos W=0.31u L=0.04u
M414 g6836 n1492 VDD VDD pmos W=0.41u L=0.04u
M415 g7311 n1395 VSS VSS nmos W=0.31u L=0.04u
M416 g7311 n1395 VDD VDD pmos W=0.41u L=0.04u
M417 g7323 n1408 VSS VSS nmos W=0.31u L=0.04u
M418 g7323 n1408 VDD VDD pmos W=0.41u L=0.04u
M419 g7305 n1280 VSS VSS nmos W=0.31u L=0.04u
M420 g7305 n1280 VDD VDD pmos W=0.41u L=0.04u
M421 g7332 n1416 VSS VSS nmos W=0.31u L=0.04u
M422 g7332 n1416 VDD VDD pmos W=0.41u L=0.04u
M423 g7328 n1283 VSS VSS nmos W=0.31u L=0.04u
M424 g7328 n1283 VDD VDD pmos W=0.41u L=0.04u
M425 g7317 n1430 VSS VSS nmos W=0.31u L=0.04u
M426 g7317 n1430 VDD VDD pmos W=0.41u L=0.04u
M427 g7335 n1471 VSS VSS nmos W=0.31u L=0.04u
M428 g7335 n1471 VDD VDD pmos W=0.41u L=0.04u
M429 g7310 n1316 VSS VSS nmos W=0.31u L=0.04u
M430 g7310 n1316 VDD VDD pmos W=0.41u L=0.04u
M431 g7309 n1413 VSS VSS nmos W=0.31u L=0.04u
M432 g7309 n1413 VDD VDD pmos W=0.41u L=0.04u
M433 g7307 n1467 VSS VSS nmos W=0.31u L=0.04u
M434 g7307 n1467 VDD VDD pmos W=0.41u L=0.04u
M435 g6309 n1406 VSS VSS nmos W=0.31u L=0.04u
M436 g6309 n1406 VDD VDD pmos W=0.41u L=0.04u
M437 g7322 n1454 VSS VSS nmos W=0.31u L=0.04u
M438 g7322 n1454 VDD VDD pmos W=0.41u L=0.04u
M439 g7308 n1425 VSS VSS nmos W=0.31u L=0.04u
M440 g7308 n1425 VDD VDD pmos W=0.41u L=0.04u
M441 g7327 n1442 VSS VSS nmos W=0.31u L=0.04u
M442 g7327 n1442 VDD VDD pmos W=0.41u L=0.04u
M443 g7331 n1247 VSS VSS nmos W=0.31u L=0.04u
M444 g7331 n1247 VDD VDD pmos W=0.41u L=0.04u
M445 g7324 n1319 VSS VSS nmos W=0.31u L=0.04u
M446 g7324 n1319 VDD VDD pmos W=0.41u L=0.04u
M447 g7319 n1403 VSS VSS nmos W=0.31u L=0.04u
M448 g7319 n1403 VDD VDD pmos W=0.41u L=0.04u
M449 g7316 n1186 VSS VSS nmos W=0.31u L=0.04u
M450 g7316 n1186 VDD VDD pmos W=0.41u L=0.04u
M451 g6299 n1435 VSS VSS nmos W=0.31u L=0.04u
M452 g6299 n1435 VDD VDD pmos W=0.41u L=0.04u
M453 g7747 n1459 VSS VSS nmos W=0.31u L=0.04u
M454 g7747 n1459 VDD VDD pmos W=0.41u L=0.04u
M455 g6301 n1439 VSS VSS nmos W=0.31u L=0.04u
M456 g6301 n1439 VDD VDD pmos W=0.41u L=0.04u
M457 g6303 n1443 VSS VSS nmos W=0.31u L=0.04u
M458 g6303 n1443 VDD VDD pmos W=0.41u L=0.04u
M459 g6837 n1315 VSS VSS nmos W=0.31u L=0.04u
M460 g6837 n1315 VDD VDD pmos W=0.41u L=0.04u
M461 g7306 n1343 VSS VSS nmos W=0.31u L=0.04u
M462 g7306 n1343 VDD VDD pmos W=0.41u L=0.04u
M463 g7748 n1478 VSS VSS nmos W=0.31u L=0.04u
M464 g7748 n1478 VDD VDD pmos W=0.41u L=0.04u
M465 g7312 n1385 VSS VSS nmos W=0.31u L=0.04u
M466 g7312 n1385 VDD VDD pmos W=0.41u L=0.04u
M467 g7313 n1476 VSS VSS nmos W=0.31u L=0.04u
M468 g7313 n1476 VDD VDD pmos W=0.41u L=0.04u
M469 g6310 n1480 VSS VSS nmos W=0.31u L=0.04u
M470 g6310 n1480 VDD VDD pmos W=0.41u L=0.04u
M471 g6308 n1482 VSS VSS nmos W=0.31u L=0.04u
M472 g6308 n1482 VDD VDD pmos W=0.41u L=0.04u
M473 g6305 n1487 VSS VSS nmos W=0.31u L=0.04u
M474 g6305 n1487 VDD VDD pmos W=0.41u L=0.04u
M475 g7318 n1369 VSS VSS nmos W=0.31u L=0.04u
M476 g7318 n1369 VDD VDD pmos W=0.41u L=0.04u
M477 g6307 n1488 VSS VSS nmos W=0.31u L=0.04u
M478 g6307 n1488 VDD VDD pmos W=0.41u L=0.04u
M479 g6312 n1490 VSS VSS nmos W=0.31u L=0.04u
M480 g6312 n1490 VDD VDD pmos W=0.41u L=0.04u
M481 g6835 n1502 VSS VSS nmos W=0.31u L=0.04u
M482 g6835 n1502 VDD VDD pmos W=0.41u L=0.04u
M483 g6300 n1497 VSS VSS nmos W=0.31u L=0.04u
M484 g6300 n1497 VDD VDD pmos W=0.41u L=0.04u
M485 g6306 n1499 VSS VSS nmos W=0.31u L=0.04u
M486 g6306 n1499 VDD VDD pmos W=0.41u L=0.04u
M487 g6311 n1500 VSS VSS nmos W=0.31u L=0.04u
M488 g6311 n1500 VDD VDD pmos W=0.41u L=0.04u
M489 g7314 n1477 VSS VSS nmos W=0.31u L=0.04u
M490 g7314 n1477 VDD VDD pmos W=0.41u L=0.04u
M491 g7333 n1353 VSS VSS nmos W=0.31u L=0.04u
M492 g7333 n1353 VDD VDD pmos W=0.41u L=0.04u
M493 g6313 n1505 VSS VSS nmos W=0.31u L=0.04u
M494 g6313 n1505 VDD VDD pmos W=0.41u L=0.04u
M495 g6302 n1506 VSS VSS nmos W=0.31u L=0.04u
M496 g6302 n1506 VDD VDD pmos W=0.41u L=0.04u
M497 g8080 n1303 VSS VSS nmos W=0.31u L=0.04u
M498 g8080 n1303 VDD VDD pmos W=0.41u L=0.04u
M499 g6844 n1323 VSS VSS nmos W=0.31u L=0.04u
M500 g6844 n1323 VDD VDD pmos W=0.41u L=0.04u
M501 g4907 n1324 VSS VSS nmos W=0.31u L=0.04u
M502 g4907 n1324 VDD VDD pmos W=0.41u L=0.04u
M503 g11594 n1246 VSS VSS nmos W=0.31u L=0.04u
M504 g11594 n1246 VDD VDD pmos W=0.41u L=0.04u
M505 g9827 n1129 VSS VSS nmos W=0.31u L=0.04u
M506 g9827 n1129 VDD VDD pmos W=0.41u L=0.04u
M507 g8987 n1265 VSS VSS nmos W=0.31u L=0.04u
M508 g8987 n1265 VDD VDD pmos W=0.41u L=0.04u
M509 g8992 n1187 VSS VSS nmos W=0.31u L=0.04u
M510 g8992 n1187 VDD VDD pmos W=0.41u L=0.04u
M511 g8991 n1261 VSS VSS nmos W=0.31u L=0.04u
M512 g8991 n1261 VDD VDD pmos W=0.41u L=0.04u
M513 g8988 n1263 VSS VSS nmos W=0.31u L=0.04u
M514 g8988 n1263 VDD VDD pmos W=0.41u L=0.04u
M515 g9819 n1194 VSS VSS nmos W=0.31u L=0.04u
M516 g9819 n1194 VDD VDD pmos W=0.41u L=0.04u
M517 g9818 n1195 VSS VSS nmos W=0.31u L=0.04u
M518 g9818 n1195 VDD VDD pmos W=0.41u L=0.04u
M519 g8447 n1370 VSS VSS nmos W=0.31u L=0.04u
M520 g8447 n1370 VDD VDD pmos W=0.41u L=0.04u
M521 g8989 n1267 VSS VSS nmos W=0.31u L=0.04u
M522 g8989 n1267 VDD VDD pmos W=0.41u L=0.04u
M523 g8444 n1384 VSS VSS nmos W=0.31u L=0.04u
M524 g8444 n1384 VDD VDD pmos W=0.41u L=0.04u
M525 g8440 n1277 VSS VSS nmos W=0.31u L=0.04u
M526 g8440 n1277 VDD VDD pmos W=0.41u L=0.04u
M527 g8993 n1269 VSS VSS nmos W=0.31u L=0.04u
M528 g8993 n1269 VDD VDD pmos W=0.41u L=0.04u
M529 g8439 n1320 VSS VSS nmos W=0.31u L=0.04u
M530 g8439 n1320 VDD VDD pmos W=0.41u L=0.04u
M531 g8441 n1361 VSS VSS nmos W=0.31u L=0.04u
M532 g8441 n1361 VDD VDD pmos W=0.41u L=0.04u
M533 g8990 n1271 VSS VSS nmos W=0.31u L=0.04u
M534 g8990 n1271 VDD VDD pmos W=0.41u L=0.04u
M535 g8442 n1418 VSS VSS nmos W=0.31u L=0.04u
M536 g8442 n1418 VDD VDD pmos W=0.41u L=0.04u
M537 g8443 n1396 VSS VSS nmos W=0.31u L=0.04u
M538 g8443 n1396 VDD VDD pmos W=0.41u L=0.04u
M539 g9826 n1128 VSS VSS nmos W=0.31u L=0.04u
M540 g9826 n1128 VDD VDD pmos W=0.41u L=0.04u
M541 g8438 n1414 VSS VSS nmos W=0.31u L=0.04u
M542 g8438 n1414 VDD VDD pmos W=0.41u L=0.04u
M543 g8418 n1409 VSS VSS nmos W=0.31u L=0.04u
M544 g8418 n1409 VDD VDD pmos W=0.41u L=0.04u
M545 g8445 n1357 VSS VSS nmos W=0.31u L=0.04u
M546 g8445 n1357 VDD VDD pmos W=0.41u L=0.04u
M547 g8420 n1276 VSS VSS nmos W=0.31u L=0.04u
M548 g8420 n1276 VDD VDD pmos W=0.41u L=0.04u
M549 g8419 n1322 VSS VSS nmos W=0.31u L=0.04u
M550 g8419 n1322 VDD VDD pmos W=0.41u L=0.04u