.SUBCKT s35932 CK CRC_OUT_1_0 CRC_OUT_1_1 CRC_OUT_1_10 CRC_OUT_1_11 CRC_OUT_1_12 CRC_OUT_1_13 CRC_OUT_1_14 CRC_OUT_1_15 CRC_OUT_1_16 CRC_OUT_1_17 CRC_OUT_1_18 CRC_OUT_1_19 CRC_OUT_1_2 CRC_OUT_1_20 CRC_OUT_1_21 CRC_OUT_1_22 CRC_OUT_1_23 CRC_OUT_1_24 CRC_OUT_1_25 CRC_OUT_1_26 CRC_OUT_1_27 CRC_OUT_1_28 CRC_OUT_1_29 CRC_OUT_1_3 CRC_OUT_1_30 CRC_OUT_1_31 CRC_OUT_1_4 CRC_OUT_1_5 CRC_OUT_1_6 CRC_OUT_1_7 CRC_OUT_1_8 CRC_OUT_1_9 CRC_OUT_2_0 CRC_OUT_2_1 CRC_OUT_2_10 CRC_OUT_2_11 CRC_OUT_2_12 CRC_OUT_2_13 CRC_OUT_2_14 CRC_OUT_2_15  CRC_OUT_2_16 CRC_OUT_2_17 CRC_OUT_2_18 CRC_OUT_2_19 CRC_OUT_2_2 CRC_OUT_2_20 CRC_OUT_2_21 CRC_OUT_2_22 CRC_OUT_2_23 CRC_OUT_2_24 CRC_OUT_2_25 CRC_OUT_2_26 CRC_OUT_2_27 CRC_OUT_2_28 CRC_OUT_2_29 CRC_OUT_2_3 CRC_OUT_2_30 CRC_OUT_2_31 CRC_OUT_2_4 CRC_OUT_2_5 CRC_OUT_2_6 CRC_OUT_2_7 CRC_OUT_2_8 CRC_OUT_2_9 CRC_OUT_3_0 CRC_OUT_3_1 CRC_OUT_3_10 CRC_OUT_3_11 CRC_OUT_3_12 CRC_OUT_3_13 CRC_OUT_3_14 CRC_OUT_3_15 CRC_OUT_3_16 CRC_OUT_3_17 CRC_OUT_3_18 CRC_OUT_3_19 CRC_OUT_3_2 CRC_OUT_3_20 CRC_OUT_3_21 CRC_OUT_3_22 CRC_OUT_3_23 CRC_OUT_3_24 CRC_OUT_3_25 CRC_OUT_3_26 CRC_OUT_3_27 CRC_OUT_3_28 CRC_OUT_3_29 CRC_OUT_3_3 CRC_OUT_3_30 CRC_OUT_3_31 CRC_OUT_3_4 CRC_OUT_3_5 CRC_OUT_3_6 CRC_OUT_3_7 CRC_OUT_3_8 CRC_OUT_3_9 CRC_OUT_4_0 CRC_OUT_4_1 CRC_OUT_4_10 CRC_OUT_4_11 CRC_OUT_4_12 CRC_OUT_4_13 CRC_OUT_4_14 CRC_OUT_4_15 CRC_OUT_4_16 CRC_OUT_4_17 CRC_OUT_4_18 CRC_OUT_4_19 CRC_OUT_4_2 CRC_OUT_4_20 CRC_OUT_4_21 CRC_OUT_4_22 CRC_OUT_4_23 CRC_OUT_4_24 CRC_OUT_4_25 CRC_OUT_4_26 CRC_OUT_4_27 CRC_OUT_4_28 CRC_OUT_4_29 CRC_OUT_4_3 CRC_OUT_4_30 CRC_OUT_4_31 CRC_OUT_4_4 CRC_OUT_4_5 CRC_OUT_4_6 CRC_OUT_4_7 CRC_OUT_4_8 CRC_OUT_4_9 CRC_OUT_5_0 CRC_OUT_5_1 CRC_OUT_5_10 CRC_OUT_5_11 CRC_OUT_5_12 CRC_OUT_5_13 CRC_OUT_5_14 CRC_OUT_5_15 CRC_OUT_5_16 CRC_OUT_5_17 CRC_OUT_5_18 CRC_OUT_5_19 CRC_OUT_5_2 CRC_OUT_5_20 CRC_OUT_5_21 CRC_OUT_5_22 CRC_OUT_5_23 CRC_OUT_5_24 CRC_OUT_5_25 CRC_OUT_5_26 CRC_OUT_5_27 CRC_OUT_5_28 CRC_OUT_5_29 CRC_OUT_5_3 CRC_OUT_5_30 CRC_OUT_5_31 CRC_OUT_5_4 CRC_OUT_5_5 CRC_OUT_5_6 CRC_OUT_5_7 CRC_OUT_5_8 CRC_OUT_5_9 CRC_OUT_6_0 CRC_OUT_6_1 CRC_OUT_6_10 CRC_OUT_6_11 CRC_OUT_6_12 CRC_OUT_6_13 CRC_OUT_6_14 CRC_OUT_6_15 CRC_OUT_6_16 CRC_OUT_6_17 CRC_OUT_6_18 CRC_OUT_6_19 CRC_OUT_6_2 CRC_OUT_6_20 CRC_OUT_6_21 CRC_OUT_6_22 CRC_OUT_6_23 CRC_OUT_6_24 CRC_OUT_6_25 CRC_OUT_6_26 CRC_OUT_6_27 CRC_OUT_6_28 CRC_OUT_6_29 CRC_OUT_6_3 CRC_OUT_6_30 CRC_OUT_6_31 CRC_OUT_6_4 CRC_OUT_6_5 CRC_OUT_6_6 CRC_OUT_6_7 CRC_OUT_6_8 CRC_OUT_6_9 CRC_OUT_7_0 CRC_OUT_7_1 CRC_OUT_7_10 CRC_OUT_7_11 CRC_OUT_7_12 CRC_OUT_7_13 CRC_OUT_7_14 CRC_OUT_7_15 CRC_OUT_7_16 CRC_OUT_7_17 CRC_OUT_7_18 CRC_OUT_7_19 CRC_OUT_7_2 CRC_OUT_7_20 CRC_OUT_7_21 CRC_OUT_7_22 CRC_OUT_7_23 CRC_OUT_7_24 CRC_OUT_7_25 CRC_OUT_7_26 CRC_OUT_7_27 CRC_OUT_7_28 CRC_OUT_7_29 CRC_OUT_7_3 CRC_OUT_7_30 CRC_OUT_7_31 CRC_OUT_7_4 CRC_OUT_7_5 CRC_OUT_7_6 CRC_OUT_7_7 CRC_OUT_7_8 CRC_OUT_7_9 CRC_OUT_8_0 CRC_OUT_8_1 CRC_OUT_8_10 CRC_OUT_8_11 CRC_OUT_8_12 CRC_OUT_8_13 CRC_OUT_8_14 CRC_OUT_8_15 CRC_OUT_8_16 CRC_OUT_8_17 CRC_OUT_8_18 CRC_OUT_8_19 CRC_OUT_8_2 CRC_OUT_8_20 CRC_OUT_8_21 CRC_OUT_8_22 CRC_OUT_8_23 CRC_OUT_8_24 CRC_OUT_8_25 CRC_OUT_8_26 CRC_OUT_8_27 CRC_OUT_8_28 CRC_OUT_8_29 CRC_OUT_8_3 CRC_OUT_8_30 CRC_OUT_8_31 CRC_OUT_8_4 CRC_OUT_8_5 CRC_OUT_8_6 CRC_OUT_8_7 CRC_OUT_8_8 CRC_OUT_8_9 CRC_OUT_9_0 CRC_OUT_9_1 CRC_OUT_9_10 CRC_OUT_9_11 CRC_OUT_9_12 CRC_OUT_9_13 CRC_OUT_9_14 CRC_OUT_9_15 CRC_OUT_9_16 CRC_OUT_9_17 CRC_OUT_9_18 CRC_OUT_9_19 CRC_OUT_9_2 CRC_OUT_9_20 CRC_OUT_9_21 CRC_OUT_9_22 CRC_OUT_9_23 CRC_OUT_9_24 CRC_OUT_9_25 CRC_OUT_9_26 CRC_OUT_9_27 CRC_OUT_9_28 CRC_OUT_9_29 CRC_OUT_9_3 CRC_OUT_9_30 CRC_OUT_9_31 CRC_OUT_9_4 CRC_OUT_9_5 CRC_OUT_9_6 CRC_OUT_9_7 CRC_OUT_9_8 CRC_OUT_9_9 DATA_0_0 DATA_0_1 DATA_0_10 DATA_0_11 DATA_0_12 DATA_0_13 DATA_0_14 DATA_0_15 DATA_0_16 DATA_0_17 DATA_0_18 DATA_0_19 DATA_0_2 DATA_0_20 DATA_0_21 DATA_0_22 DATA_0_23 DATA_0_24 DATA_0_25 DATA_0_26 DATA_0_27 DATA_0_28 DATA_0_29 DATA_0_3 DATA_0_30 DATA_0_31 DATA_0_4 DATA_0_5 DATA_0_6 DATA_0_7 DATA_0_8 DATA_0_9 WX1227 WX1220 WX1157 WX1150 WX1143 WX1136 WX1129 WX1122 WX1115 WX1108 WX1101 WX1094 WX1213 WX1087 WX1080 WX1073 WX1066 WX1059 WX1052 WX1045 WX1038 WX1031 WX1024 WX1206 WX1017 WX1010 WX1199 WX1192 WX1185 WX1178 WX1171 WX1164 RESET TM0 TM1 VDD VSS 
M1 WX11670 AND2_4031/net6 VSS VSS nmos W=0.31u L=0.04u
M2 AND2_4031/X_u2-net6 RESET VSS VSS nmos W=0.31u L=0.04u
M3 AND2_4031/net6 n1208 AND2_4031/X_u2-net6 VSS nmos W=0.31u L=0.04u
M4 WX11670 AND2_4031/net6 VDD VDD pmos W=0.41u L=0.04u
M5 AND2_4031/net6 RESET VDD VDD pmos W=0.41u L=0.04u
M6 AND2_4031/net6 n1208 VDD VDD pmos W=0.41u L=0.04u
M7 WX11668 AND2_4030/net6 VSS VSS nmos W=0.31u L=0.04u
M8 AND2_4030/X_u2-net6 RESET VSS VSS nmos W=0.31u L=0.04u
M9 AND2_4030/net6 n1209 AND2_4030/X_u2-net6 VSS nmos W=0.31u L=0.04u
M10 WX11668 AND2_4030/net6 VDD VDD pmos W=0.41u L=0.04u
M11 AND2_4030/net6 RESET VDD VDD pmos W=0.41u L=0.04u
M12 AND2_4030/net6 n1209 VDD VDD pmos W=0.41u L=0.04u
M13 WX11666 AND2_4029/net6 VSS VSS nmos W=0.31u L=0.04u
M14 AND2_4029/X_u2-net6 RESET VSS VSS nmos W=0.31u L=0.04u
M15 AND2_4029/net6 n1210 AND2_4029/X_u2-net6 VSS nmos W=0.31u L=0.04u
M16 WX11666 AND2_4029/net6 VDD VDD pmos W=0.41u L=0.04u
M17 AND2_4029/net6 RESET VDD VDD pmos W=0.41u L=0.04u
M18 AND2_4029/net6 n1210 VDD VDD pmos W=0.41u L=0.04u
M19 WX11664 AND2_4028/net6 VSS VSS nmos W=0.31u L=0.04u
M20 AND2_4028/X_u2-net6 RESET VSS VSS nmos W=0.31u L=0.04u
M21 AND2_4028/net6 n1211 AND2_4028/X_u2-net6 VSS nmos W=0.31u L=0.04u
M22 WX11664 AND2_4028/net6 VDD VDD pmos W=0.41u L=0.04u
M23 AND2_4028/net6 RESET VDD VDD pmos W=0.41u L=0.04u
M24 AND2_4028/net6 n1211 VDD VDD pmos W=0.41u L=0.04u
M25 WX11662 AND2_4027/net6 VSS VSS nmos W=0.31u L=0.04u
M26 AND2_4027/X_u2-net6 RESET VSS VSS nmos W=0.31u L=0.04u
M27 AND2_4027/net6 n1212 AND2_4027/X_u2-net6 VSS nmos W=0.31u L=0.04u
M28 WX11662 AND2_4027/net6 VDD VDD pmos W=0.41u L=0.04u
M29 AND2_4027/net6 RESET VDD VDD pmos W=0.41u L=0.04u
M30 AND2_4027/net6 n1212 VDD VDD pmos W=0.41u L=0.04u
M31 WX11660 AND2_4026/net6 VSS VSS nmos W=0.31u L=0.04u
M32 AND2_4026/X_u2-net6 RESET VSS VSS nmos W=0.31u L=0.04u
M33 AND2_4026/net6 n1213 AND2_4026/X_u2-net6 VSS nmos W=0.31u L=0.04u
M34 WX11660 AND2_4026/net6 VDD VDD pmos W=0.41u L=0.04u
M35 AND2_4026/net6 RESET VDD VDD pmos W=0.41u L=0.04u
M36 AND2_4026/net6 n1213 VDD VDD pmos W=0.41u L=0.04u
M37 WX11658 AND2_4025/net6 VSS VSS nmos W=0.31u L=0.04u
M38 AND2_4025/X_u2-net6 RESET VSS VSS nmos W=0.31u L=0.04u
M39 AND2_4025/net6 n1214 AND2_4025/X_u2-net6 VSS nmos W=0.31u L=0.04u
M40 WX11658 AND2_4025/net6 VDD VDD pmos W=0.41u L=0.04u
M41 AND2_4025/net6 RESET VDD VDD pmos W=0.41u L=0.04u
M42 AND2_4025/net6 n1214 VDD VDD pmos W=0.41u L=0.04u
M43 WX11656 AND2_4024/net6 VSS VSS nmos W=0.31u L=0.04u
M44 AND2_4024/X_u2-net6 RESET VSS VSS nmos W=0.31u L=0.04u
M45 AND2_4024/net6 n1215 AND2_4024/X_u2-net6 VSS nmos W=0.31u L=0.04u
M46 WX11656 AND2_4024/net6 VDD VDD pmos W=0.41u L=0.04u
M47 AND2_4024/net6 RESET VDD VDD pmos W=0.41u L=0.04u
M48 AND2_4024/net6 n1215 VDD VDD pmos W=0.41u L=0.04u
M49 WX11654 AND2_4023/net6 VSS VSS nmos W=0.31u L=0.04u
M50 AND2_4023/X_u2-net6 RESET VSS VSS nmos W=0.31u L=0.04u
M51 AND2_4023/net6 n1216 AND2_4023/X_u2-net6 VSS nmos W=0.31u L=0.04u
M52 WX11654 AND2_4023/net6 VDD VDD pmos W=0.41u L=0.04u
M53 AND2_4023/net6 RESET VDD VDD pmos W=0.41u L=0.04u
M54 AND2_4023/net6 n1216 VDD VDD pmos W=0.41u L=0.04u
M55 WX11652 AND2_4022/net6 VSS VSS nmos W=0.31u L=0.04u
M56 AND2_4022/X_u2-net6 RESET VSS VSS nmos W=0.31u L=0.04u
M57 AND2_4022/net6 n1217 AND2_4022/X_u2-net6 VSS nmos W=0.31u L=0.04u
M58 WX11652 AND2_4022/net6 VDD VDD pmos W=0.41u L=0.04u
M59 AND2_4022/net6 RESET VDD VDD pmos W=0.41u L=0.04u
M60 AND2_4022/net6 n1217 VDD VDD pmos W=0.41u L=0.04u
M61 WX11650 AND2_4021/net6 VSS VSS nmos W=0.31u L=0.04u
M62 AND2_4021/X_u2-net6 RESET VSS VSS nmos W=0.31u L=0.04u
M63 AND2_4021/net6 n1218 AND2_4021/X_u2-net6 VSS nmos W=0.31u L=0.04u
M64 WX11650 AND2_4021/net6 VDD VDD pmos W=0.41u L=0.04u
M65 AND2_4021/net6 RESET VDD VDD pmos W=0.41u L=0.04u
M66 AND2_4021/net6 n1218 VDD VDD pmos W=0.41u L=0.04u
M67 WX11648 AND2_4020/net6 VSS VSS nmos W=0.31u L=0.04u
M68 AND2_4020/X_u2-net6 RESET VSS VSS nmos W=0.31u L=0.04u
M69 AND2_4020/net6 n1219 AND2_4020/X_u2-net6 VSS nmos W=0.31u L=0.04u
M70 WX11648 AND2_4020/net6 VDD VDD pmos W=0.41u L=0.04u
M71 AND2_4020/net6 RESET VDD VDD pmos W=0.41u L=0.04u
M72 AND2_4020/net6 n1219 VDD VDD pmos W=0.41u L=0.04u
M73 WX11646 AND2_4019/net6 VSS VSS nmos W=0.31u L=0.04u
M74 AND2_4019/X_u2-net6 RESET VSS VSS nmos W=0.31u L=0.04u
M75 AND2_4019/net6 n1220 AND2_4019/X_u2-net6 VSS nmos W=0.31u L=0.04u
M76 WX11646 AND2_4019/net6 VDD VDD pmos W=0.41u L=0.04u
M77 AND2_4019/net6 RESET VDD VDD pmos W=0.41u L=0.04u
M78 AND2_4019/net6 n1220 VDD VDD pmos W=0.41u L=0.04u
M79 WX11644 AND2_4018/net6 VSS VSS nmos W=0.31u L=0.04u
M80 AND2_4018/X_u2-net6 RESET VSS VSS nmos W=0.31u L=0.04u
M81 AND2_4018/net6 n1221 AND2_4018/X_u2-net6 VSS nmos W=0.31u L=0.04u
M82 WX11644 AND2_4018/net6 VDD VDD pmos W=0.41u L=0.04u
M83 AND2_4018/net6 RESET VDD VDD pmos W=0.41u L=0.04u
M84 AND2_4018/net6 n1221 VDD VDD pmos W=0.41u L=0.04u
M85 WX11642 AND2_4017/net6 VSS VSS nmos W=0.31u L=0.04u
M86 AND2_4017/X_u2-net6 RESET VSS VSS nmos W=0.31u L=0.04u
M87 AND2_4017/net6 n1222 AND2_4017/X_u2-net6 VSS nmos W=0.31u L=0.04u
M88 WX11642 AND2_4017/net6 VDD VDD pmos W=0.41u L=0.04u
M89 AND2_4017/net6 RESET VDD VDD pmos W=0.41u L=0.04u
M90 AND2_4017/net6 n1222 VDD VDD pmos W=0.41u L=0.04u
M91 WX11640 AND2_4016/net6 VSS VSS nmos W=0.31u L=0.04u
M92 AND2_4016/X_u2-net6 RESET VSS VSS nmos W=0.31u L=0.04u
M93 AND2_4016/net6 n1223 AND2_4016/X_u2-net6 VSS nmos W=0.31u L=0.04u
M94 WX11640 AND2_4016/net6 VDD VDD pmos W=0.41u L=0.04u
M95 AND2_4016/net6 RESET VDD VDD pmos W=0.41u L=0.04u
M96 AND2_4016/net6 n1223 VDD VDD pmos W=0.41u L=0.04u
M97 WX11638 AND2_4015/net6 VSS VSS nmos W=0.31u L=0.04u
M98 AND2_4015/X_u2-net6 RESET VSS VSS nmos W=0.31u L=0.04u
M99 AND2_4015/net6 n1224 AND2_4015/X_u2-net6 VSS nmos W=0.31u L=0.04u
M100 WX11638 AND2_4015/net6 VDD VDD pmos W=0.41u L=0.04u
M101 AND2_4015/net6 RESET VDD VDD pmos W=0.41u L=0.04u
M102 AND2_4015/net6 n1224 VDD VDD pmos W=0.41u L=0.04u
M103 WX11636 AND2_4014/net6 VSS VSS nmos W=0.31u L=0.04u
M104 AND2_4014/X_u2-net6 RESET VSS VSS nmos W=0.31u L=0.04u
M105 AND2_4014/net6 n1225 AND2_4014/X_u2-net6 VSS nmos W=0.31u L=0.04u
M106 WX11636 AND2_4014/net6 VDD VDD pmos W=0.41u L=0.04u
M107 AND2_4014/net6 RESET VDD VDD pmos W=0.41u L=0.04u
M108 AND2_4014/net6 n1225 VDD VDD pmos W=0.41u L=0.04u
M109 WX11634 AND2_4013/net6 VSS VSS nmos W=0.31u L=0.04u
M110 AND2_4013/X_u2-net6 RESET VSS VSS nmos W=0.31u L=0.04u
M111 AND2_4013/net6 n1226 AND2_4013/X_u2-net6 VSS nmos W=0.31u L=0.04u
M112 WX11634 AND2_4013/net6 VDD VDD pmos W=0.41u L=0.04u
M113 AND2_4013/net6 RESET VDD VDD pmos W=0.41u L=0.04u
M114 AND2_4013/net6 n1226 VDD VDD pmos W=0.41u L=0.04u
M115 WX11632 AND2_4012/net6 VSS VSS nmos W=0.31u L=0.04u
M116 AND2_4012/X_u2-net6 RESET VSS VSS nmos W=0.31u L=0.04u
M117 AND2_4012/net6 n1227 AND2_4012/X_u2-net6 VSS nmos W=0.31u L=0.04u
M118 WX11632 AND2_4012/net6 VDD VDD pmos W=0.41u L=0.04u
M119 AND2_4012/net6 RESET VDD VDD pmos W=0.41u L=0.04u
M120 AND2_4012/net6 n1227 VDD VDD pmos W=0.41u L=0.04u
M121 WX11630 AND2_4011/net6 VSS VSS nmos W=0.31u L=0.04u
M122 AND2_4011/X_u2-net6 RESET VSS VSS nmos W=0.31u L=0.04u
M123 AND2_4011/net6 n1228 AND2_4011/X_u2-net6 VSS nmos W=0.31u L=0.04u
M124 WX11630 AND2_4011/net6 VDD VDD pmos W=0.41u L=0.04u
M125 AND2_4011/net6 RESET VDD VDD pmos W=0.41u L=0.04u
M126 AND2_4011/net6 n1228 VDD VDD pmos W=0.41u L=0.04u
M127 WX11628 AND2_4010/net6 VSS VSS nmos W=0.31u L=0.04u
M128 AND2_4010/X_u2-net6 RESET VSS VSS nmos W=0.31u L=0.04u
M129 AND2_4010/net6 n1229 AND2_4010/X_u2-net6 VSS nmos W=0.31u L=0.04u
M130 WX11628 AND2_4010/net6 VDD VDD pmos W=0.41u L=0.04u
M131 AND2_4010/net6 RESET VDD VDD pmos W=0.41u L=0.04u
M132 AND2_4010/net6 n1229 VDD VDD pmos W=0.41u L=0.04u
M133 WX11626 AND2_4009/net6 VSS VSS nmos W=0.31u L=0.04u
M134 AND2_4009/X_u2-net6 RESET VSS VSS nmos W=0.31u L=0.04u
M135 AND2_4009/net6 n1230 AND2_4009/X_u2-net6 VSS nmos W=0.31u L=0.04u
M136 WX11626 AND2_4009/net6 VDD VDD pmos W=0.41u L=0.04u
M137 AND2_4009/net6 RESET VDD VDD pmos W=0.41u L=0.04u
M138 AND2_4009/net6 n1230 VDD VDD pmos W=0.41u L=0.04u
M139 WX11624 AND2_4008/net6 VSS VSS nmos W=0.31u L=0.04u
M140 AND2_4008/X_u2-net6 RESET VSS VSS nmos W=0.31u L=0.04u
M141 AND2_4008/net6 n1231 AND2_4008/X_u2-net6 VSS nmos W=0.31u L=0.04u
M142 WX11624 AND2_4008/net6 VDD VDD pmos W=0.41u L=0.04u
M143 AND2_4008/net6 RESET VDD VDD pmos W=0.41u L=0.04u
M144 AND2_4008/net6 n1231 VDD VDD pmos W=0.41u L=0.04u
M145 WX11622 AND2_4007/net6 VSS VSS nmos W=0.31u L=0.04u
M146 AND2_4007/X_u2-net6 RESET VSS VSS nmos W=0.31u L=0.04u
M147 AND2_4007/net6 n1232 AND2_4007/X_u2-net6 VSS nmos W=0.31u L=0.04u
M148 WX11622 AND2_4007/net6 VDD VDD pmos W=0.41u L=0.04u
M149 AND2_4007/net6 RESET VDD VDD pmos W=0.41u L=0.04u
M150 AND2_4007/net6 n1232 VDD VDD pmos W=0.41u L=0.04u
M151 WX11620 AND2_4006/net6 VSS VSS nmos W=0.31u L=0.04u
M152 AND2_4006/X_u2-net6 RESET VSS VSS nmos W=0.31u L=0.04u
M153 AND2_4006/net6 n1233 AND2_4006/X_u2-net6 VSS nmos W=0.31u L=0.04u
M154 WX11620 AND2_4006/net6 VDD VDD pmos W=0.41u L=0.04u
M155 AND2_4006/net6 RESET VDD VDD pmos W=0.41u L=0.04u
M156 AND2_4006/net6 n1233 VDD VDD pmos W=0.41u L=0.04u
M157 WX11618 AND2_4005/net6 VSS VSS nmos W=0.31u L=0.04u
M158 AND2_4005/X_u2-net6 RESET VSS VSS nmos W=0.31u L=0.04u
M159 AND2_4005/net6 n1234 AND2_4005/X_u2-net6 VSS nmos W=0.31u L=0.04u
M160 WX11618 AND2_4005/net6 VDD VDD pmos W=0.41u L=0.04u
M161 AND2_4005/net6 RESET VDD VDD pmos W=0.41u L=0.04u
M162 AND2_4005/net6 n1234 VDD VDD pmos W=0.41u L=0.04u
M163 WX11616 AND2_4004/net6 VSS VSS nmos W=0.31u L=0.04u
M164 AND2_4004/X_u2-net6 RESET VSS VSS nmos W=0.31u L=0.04u
M165 AND2_4004/net6 n1235 AND2_4004/X_u2-net6 VSS nmos W=0.31u L=0.04u
M166 WX11616 AND2_4004/net6 VDD VDD pmos W=0.41u L=0.04u
M167 AND2_4004/net6 RESET VDD VDD pmos W=0.41u L=0.04u
M168 AND2_4004/net6 n1235 VDD VDD pmos W=0.41u L=0.04u
M169 WX11614 AND2_4003/net6 VSS VSS nmos W=0.31u L=0.04u
M170 AND2_4003/X_u2-net6 RESET VSS VSS nmos W=0.31u L=0.04u
M171 AND2_4003/net6 n1236 AND2_4003/X_u2-net6 VSS nmos W=0.31u L=0.04u
M172 WX11614 AND2_4003/net6 VDD VDD pmos W=0.41u L=0.04u
M173 AND2_4003/net6 RESET VDD VDD pmos W=0.41u L=0.04u
M174 AND2_4003/net6 n1236 VDD VDD pmos W=0.41u L=0.04u
M175 WX11612 AND2_4002/net6 VSS VSS nmos W=0.31u L=0.04u
M176 AND2_4002/X_u2-net6 RESET VSS VSS nmos W=0.31u L=0.04u
M177 AND2_4002/net6 n1237 AND2_4002/X_u2-net6 VSS nmos W=0.31u L=0.04u
M178 WX11612 AND2_4002/net6 VDD VDD pmos W=0.41u L=0.04u
M179 AND2_4002/net6 RESET VDD VDD pmos W=0.41u L=0.04u
M180 AND2_4002/net6 n1237 VDD VDD pmos W=0.41u L=0.04u
M181 WX11610 AND2_4001/net6 VSS VSS nmos W=0.31u L=0.04u
M182 AND2_4001/X_u2-net6 RESET VSS VSS nmos W=0.31u L=0.04u
M183 AND2_4001/net6 n1238 AND2_4001/X_u2-net6 VSS nmos W=0.31u L=0.04u
M184 WX11610 AND2_4001/net6 VDD VDD pmos W=0.41u L=0.04u
M185 AND2_4001/net6 RESET VDD VDD pmos W=0.41u L=0.04u
M186 AND2_4001/net6 n1238 VDD VDD pmos W=0.41u L=0.04u
M187 WX11608 AND2_4000/net6 VSS VSS nmos W=0.31u L=0.04u
M188 AND2_4000/X_u2-net6 RESET VSS VSS nmos W=0.31u L=0.04u
M189 AND2_4000/net6 n1239 AND2_4000/X_u2-net6 VSS nmos W=0.31u L=0.04u
M190 WX11608 AND2_4000/net6 VDD VDD pmos W=0.41u L=0.04u
M191 AND2_4000/net6 RESET VDD VDD pmos W=0.41u L=0.04u
M192 AND2_4000/net6 n1239 VDD VDD pmos W=0.41u L=0.04u
M193 WX11242 AND2_3935/net6 VSS VSS nmos W=0.31u L=0.04u
M194 AND2_3935/X_u2-net6 RESET VSS VSS nmos W=0.31u L=0.04u
M195 AND2_3935/net6 WX11179 AND2_3935/X_u2-net6 VSS nmos W=0.31u L=0.04u
M196 WX11242 AND2_3935/net6 VDD VDD pmos W=0.41u L=0.04u
M197 AND2_3935/net6 RESET VDD VDD pmos W=0.41u L=0.04u
M198 AND2_3935/net6 WX11179 VDD VDD pmos W=0.41u L=0.04u
M199 WX11240 AND2_3934/net6 VSS VSS nmos W=0.31u L=0.04u
M200 AND2_3934/X_u2-net6 RESET VSS VSS nmos W=0.31u L=0.04u
M201 AND2_3934/net6 WX11177 AND2_3934/X_u2-net6 VSS nmos W=0.31u L=0.04u
M202 WX11240 AND2_3934/net6 VDD VDD pmos W=0.41u L=0.04u
M203 AND2_3934/net6 RESET VDD VDD pmos W=0.41u L=0.04u
M204 AND2_3934/net6 WX11177 VDD VDD pmos W=0.41u L=0.04u
M205 WX11238 AND2_3933/net6 VSS VSS nmos W=0.31u L=0.04u
M206 AND2_3933/X_u2-net6 RESET VSS VSS nmos W=0.31u L=0.04u
M207 AND2_3933/net6 WX11175 AND2_3933/X_u2-net6 VSS nmos W=0.31u L=0.04u
M208 WX11238 AND2_3933/net6 VDD VDD pmos W=0.41u L=0.04u
M209 AND2_3933/net6 RESET VDD VDD pmos W=0.41u L=0.04u
M210 AND2_3933/net6 WX11175 VDD VDD pmos W=0.41u L=0.04u
M211 WX11236 AND2_3932/net6 VSS VSS nmos W=0.31u L=0.04u
M212 AND2_3932/X_u2-net6 RESET VSS VSS nmos W=0.31u L=0.04u
M213 AND2_3932/net6 WX11173 AND2_3932/X_u2-net6 VSS nmos W=0.31u L=0.04u
M214 WX11236 AND2_3932/net6 VDD VDD pmos W=0.41u L=0.04u
M215 AND2_3932/net6 RESET VDD VDD pmos W=0.41u L=0.04u
M216 AND2_3932/net6 WX11173 VDD VDD pmos W=0.41u L=0.04u
M217 WX11234 AND2_3931/net6 VSS VSS nmos W=0.31u L=0.04u
M218 AND2_3931/X_u2-net6 RESET VSS VSS nmos W=0.31u L=0.04u
M219 AND2_3931/net6 WX11171 AND2_3931/X_u2-net6 VSS nmos W=0.31u L=0.04u
M220 WX11234 AND2_3931/net6 VDD VDD pmos W=0.41u L=0.04u
M221 AND2_3931/net6 RESET VDD VDD pmos W=0.41u L=0.04u
M222 AND2_3931/net6 WX11171 VDD VDD pmos W=0.41u L=0.04u
M223 WX11232 AND2_3930/net6 VSS VSS nmos W=0.31u L=0.04u
M224 AND2_3930/X_u2-net6 RESET VSS VSS nmos W=0.31u L=0.04u
M225 AND2_3930/net6 WX11169 AND2_3930/X_u2-net6 VSS nmos W=0.31u L=0.04u
M226 WX11232 AND2_3930/net6 VDD VDD pmos W=0.41u L=0.04u
M227 AND2_3930/net6 RESET VDD VDD pmos W=0.41u L=0.04u
M228 AND2_3930/net6 WX11169 VDD VDD pmos W=0.41u L=0.04u
M229 WX11230 AND2_3929/net6 VSS VSS nmos W=0.31u L=0.04u
M230 AND2_3929/X_u2-net6 RESET VSS VSS nmos W=0.31u L=0.04u
M231 AND2_3929/net6 WX11167 AND2_3929/X_u2-net6 VSS nmos W=0.31u L=0.04u
M232 WX11230 AND2_3929/net6 VDD VDD pmos W=0.41u L=0.04u
M233 AND2_3929/net6 RESET VDD VDD pmos W=0.41u L=0.04u
M234 AND2_3929/net6 WX11167 VDD VDD pmos W=0.41u L=0.04u
M235 WX11228 AND2_3928/net6 VSS VSS nmos W=0.31u L=0.04u
M236 AND2_3928/X_u2-net6 RESET VSS VSS nmos W=0.31u L=0.04u
M237 AND2_3928/net6 WX11165 AND2_3928/X_u2-net6 VSS nmos W=0.31u L=0.04u
M238 WX11228 AND2_3928/net6 VDD VDD pmos W=0.41u L=0.04u
M239 AND2_3928/net6 RESET VDD VDD pmos W=0.41u L=0.04u
M240 AND2_3928/net6 WX11165 VDD VDD pmos W=0.41u L=0.04u
M241 WX11226 AND2_3927/net6 VSS VSS nmos W=0.31u L=0.04u
M242 AND2_3927/X_u2-net6 RESET VSS VSS nmos W=0.31u L=0.04u
M243 AND2_3927/net6 WX11163 AND2_3927/X_u2-net6 VSS nmos W=0.31u L=0.04u
M244 WX11226 AND2_3927/net6 VDD VDD pmos W=0.41u L=0.04u
M245 AND2_3927/net6 RESET VDD VDD pmos W=0.41u L=0.04u
M246 AND2_3927/net6 WX11163 VDD VDD pmos W=0.41u L=0.04u
M247 WX11224 AND2_3926/net6 VSS VSS nmos W=0.31u L=0.04u
M248 AND2_3926/X_u2-net6 RESET VSS VSS nmos W=0.31u L=0.04u
M249 AND2_3926/net6 WX11161 AND2_3926/X_u2-net6 VSS nmos W=0.31u L=0.04u
M250 WX11224 AND2_3926/net6 VDD VDD pmos W=0.41u L=0.04u
M251 AND2_3926/net6 RESET VDD VDD pmos W=0.41u L=0.04u
M252 AND2_3926/net6 WX11161 VDD VDD pmos W=0.41u L=0.04u
M253 WX11222 AND2_3925/net6 VSS VSS nmos W=0.31u L=0.04u
M254 AND2_3925/X_u2-net6 RESET VSS VSS nmos W=0.31u L=0.04u
M255 AND2_3925/net6 WX11159 AND2_3925/X_u2-net6 VSS nmos W=0.31u L=0.04u
M256 WX11222 AND2_3925/net6 VDD VDD pmos W=0.41u L=0.04u
M257 AND2_3925/net6 RESET VDD VDD pmos W=0.41u L=0.04u
M258 AND2_3925/net6 WX11159 VDD VDD pmos W=0.41u L=0.04u
M259 WX11220 AND2_3924/net6 VSS VSS nmos W=0.31u L=0.04u
M260 AND2_3924/X_u2-net6 RESET VSS VSS nmos W=0.31u L=0.04u
M261 AND2_3924/net6 WX11157 AND2_3924/X_u2-net6 VSS nmos W=0.31u L=0.04u
M262 WX11220 AND2_3924/net6 VDD VDD pmos W=0.41u L=0.04u
M263 AND2_3924/net6 RESET VDD VDD pmos W=0.41u L=0.04u
M264 AND2_3924/net6 WX11157 VDD VDD pmos W=0.41u L=0.04u
M265 WX11218 AND2_3923/net6 VSS VSS nmos W=0.31u L=0.04u
M266 AND2_3923/X_u2-net6 RESET VSS VSS nmos W=0.31u L=0.04u
M267 AND2_3923/net6 WX11155 AND2_3923/X_u2-net6 VSS nmos W=0.31u L=0.04u
M268 WX11218 AND2_3923/net6 VDD VDD pmos W=0.41u L=0.04u
M269 AND2_3923/net6 RESET VDD VDD pmos W=0.41u L=0.04u
M270 AND2_3923/net6 WX11155 VDD VDD pmos W=0.41u L=0.04u
M271 WX11216 AND2_3922/net6 VSS VSS nmos W=0.31u L=0.04u
M272 AND2_3922/X_u2-net6 RESET VSS VSS nmos W=0.31u L=0.04u
M273 AND2_3922/net6 WX11153 AND2_3922/X_u2-net6 VSS nmos W=0.31u L=0.04u
M274 WX11216 AND2_3922/net6 VDD VDD pmos W=0.41u L=0.04u
M275 AND2_3922/net6 RESET VDD VDD pmos W=0.41u L=0.04u
M276 AND2_3922/net6 WX11153 VDD VDD pmos W=0.41u L=0.04u
M277 WX11214 AND2_3921/net6 VSS VSS nmos W=0.31u L=0.04u
M278 AND2_3921/X_u2-net6 RESET VSS VSS nmos W=0.31u L=0.04u
M279 AND2_3921/net6 WX11151 AND2_3921/X_u2-net6 VSS nmos W=0.31u L=0.04u
M280 WX11214 AND2_3921/net6 VDD VDD pmos W=0.41u L=0.04u
M281 AND2_3921/net6 RESET VDD VDD pmos W=0.41u L=0.04u
M282 AND2_3921/net6 WX11151 VDD VDD pmos W=0.41u L=0.04u
M283 WX11212 AND2_3920/net6 VSS VSS nmos W=0.31u L=0.04u
M284 AND2_3920/X_u2-net6 RESET VSS VSS nmos W=0.31u L=0.04u
M285 AND2_3920/net6 WX11149 AND2_3920/X_u2-net6 VSS nmos W=0.31u L=0.04u
M286 WX11212 AND2_3920/net6 VDD VDD pmos W=0.41u L=0.04u
M287 AND2_3920/net6 RESET VDD VDD pmos W=0.41u L=0.04u
M288 AND2_3920/net6 WX11149 VDD VDD pmos W=0.41u L=0.04u
M289 WX11210 AND2_3919/net6 VSS VSS nmos W=0.31u L=0.04u
M290 AND2_3919/X_u2-net6 RESET VSS VSS nmos W=0.31u L=0.04u
M291 AND2_3919/net6 WX11147 AND2_3919/X_u2-net6 VSS nmos W=0.31u L=0.04u
M292 WX11210 AND2_3919/net6 VDD VDD pmos W=0.41u L=0.04u
M293 AND2_3919/net6 RESET VDD VDD pmos W=0.41u L=0.04u
M294 AND2_3919/net6 WX11147 VDD VDD pmos W=0.41u L=0.04u
M295 WX11208 AND2_3918/net6 VSS VSS nmos W=0.31u L=0.04u
M296 AND2_3918/X_u2-net6 RESET VSS VSS nmos W=0.31u L=0.04u
M297 AND2_3918/net6 WX11145 AND2_3918/X_u2-net6 VSS nmos W=0.31u L=0.04u
M298 WX11208 AND2_3918/net6 VDD VDD pmos W=0.41u L=0.04u
M299 AND2_3918/net6 RESET VDD VDD pmos W=0.41u L=0.04u
M300 AND2_3918/net6 WX11145 VDD VDD pmos W=0.41u L=0.04u
M301 WX11206 AND2_3917/net6 VSS VSS nmos W=0.31u L=0.04u
M302 AND2_3917/X_u2-net6 RESET VSS VSS nmos W=0.31u L=0.04u
M303 AND2_3917/net6 WX11143 AND2_3917/X_u2-net6 VSS nmos W=0.31u L=0.04u
M304 WX11206 AND2_3917/net6 VDD VDD pmos W=0.41u L=0.04u
M305 AND2_3917/net6 RESET VDD VDD pmos W=0.41u L=0.04u
M306 AND2_3917/net6 WX11143 VDD VDD pmos W=0.41u L=0.04u
M307 WX11204 AND2_3916/net6 VSS VSS nmos W=0.31u L=0.04u
M308 AND2_3916/X_u2-net6 RESET VSS VSS nmos W=0.31u L=0.04u
M309 AND2_3916/net6 WX11141 AND2_3916/X_u2-net6 VSS nmos W=0.31u L=0.04u
M310 WX11204 AND2_3916/net6 VDD VDD pmos W=0.41u L=0.04u
M311 AND2_3916/net6 RESET VDD VDD pmos W=0.41u L=0.04u
M312 AND2_3916/net6 WX11141 VDD VDD pmos W=0.41u L=0.04u
M313 WX11202 AND2_3915/net6 VSS VSS nmos W=0.31u L=0.04u
M314 AND2_3915/X_u2-net6 RESET VSS VSS nmos W=0.31u L=0.04u
M315 AND2_3915/net6 WX11139 AND2_3915/X_u2-net6 VSS nmos W=0.31u L=0.04u
M316 WX11202 AND2_3915/net6 VDD VDD pmos W=0.41u L=0.04u
M317 AND2_3915/net6 RESET VDD VDD pmos W=0.41u L=0.04u
M318 AND2_3915/net6 WX11139 VDD VDD pmos W=0.41u L=0.04u
M319 WX11200 AND2_3914/net6 VSS VSS nmos W=0.31u L=0.04u
M320 AND2_3914/X_u2-net6 RESET VSS VSS nmos W=0.31u L=0.04u
M321 AND2_3914/net6 WX11137 AND2_3914/X_u2-net6 VSS nmos W=0.31u L=0.04u
M322 WX11200 AND2_3914/net6 VDD VDD pmos W=0.41u L=0.04u
M323 AND2_3914/net6 RESET VDD VDD pmos W=0.41u L=0.04u
M324 AND2_3914/net6 WX11137 VDD VDD pmos W=0.41u L=0.04u
M325 WX11198 AND2_3913/net6 VSS VSS nmos W=0.31u L=0.04u
M326 AND2_3913/X_u2-net6 RESET VSS VSS nmos W=0.31u L=0.04u
M327 AND2_3913/net6 WX11135 AND2_3913/X_u2-net6 VSS nmos W=0.31u L=0.04u
M328 WX11198 AND2_3913/net6 VDD VDD pmos W=0.41u L=0.04u
M329 AND2_3913/net6 RESET VDD VDD pmos W=0.41u L=0.04u
M330 AND2_3913/net6 WX11135 VDD VDD pmos W=0.41u L=0.04u
M331 WX11196 AND2_3912/net6 VSS VSS nmos W=0.31u L=0.04u
M332 AND2_3912/X_u2-net6 RESET VSS VSS nmos W=0.31u L=0.04u
M333 AND2_3912/net6 WX11133 AND2_3912/X_u2-net6 VSS nmos W=0.31u L=0.04u
M334 WX11196 AND2_3912/net6 VDD VDD pmos W=0.41u L=0.04u
M335 AND2_3912/net6 RESET VDD VDD pmos W=0.41u L=0.04u
M336 AND2_3912/net6 WX11133 VDD VDD pmos W=0.41u L=0.04u
M337 WX11194 AND2_3911/net6 VSS VSS nmos W=0.31u L=0.04u
M338 AND2_3911/X_u2-net6 RESET VSS VSS nmos W=0.31u L=0.04u
M339 AND2_3911/net6 WX11131 AND2_3911/X_u2-net6 VSS nmos W=0.31u L=0.04u
M340 WX11194 AND2_3911/net6 VDD VDD pmos W=0.41u L=0.04u
M341 AND2_3911/net6 RESET VDD VDD pmos W=0.41u L=0.04u
M342 AND2_3911/net6 WX11131 VDD VDD pmos W=0.41u L=0.04u
M343 WX11192 AND2_3910/net6 VSS VSS nmos W=0.31u L=0.04u
M344 AND2_3910/X_u2-net6 RESET VSS VSS nmos W=0.31u L=0.04u
M345 AND2_3910/net6 WX11129 AND2_3910/X_u2-net6 VSS nmos W=0.31u L=0.04u
M346 WX11192 AND2_3910/net6 VDD VDD pmos W=0.41u L=0.04u
M347 AND2_3910/net6 RESET VDD VDD pmos W=0.41u L=0.04u
M348 AND2_3910/net6 WX11129 VDD VDD pmos W=0.41u L=0.04u
M349 WX11190 AND2_3909/net6 VSS VSS nmos W=0.31u L=0.04u
M350 AND2_3909/X_u2-net6 RESET VSS VSS nmos W=0.31u L=0.04u
M351 AND2_3909/net6 WX11127 AND2_3909/X_u2-net6 VSS nmos W=0.31u L=0.04u
M352 WX11190 AND2_3909/net6 VDD VDD pmos W=0.41u L=0.04u
M353 AND2_3909/net6 RESET VDD VDD pmos W=0.41u L=0.04u
M354 AND2_3909/net6 WX11127 VDD VDD pmos W=0.41u L=0.04u
M355 WX11188 AND2_3908/net6 VSS VSS nmos W=0.31u L=0.04u
M356 AND2_3908/X_u2-net6 RESET VSS VSS nmos W=0.31u L=0.04u
M357 AND2_3908/net6 WX11125 AND2_3908/X_u2-net6 VSS nmos W=0.31u L=0.04u
M358 WX11188 AND2_3908/net6 VDD VDD pmos W=0.41u L=0.04u
M359 AND2_3908/net6 RESET VDD VDD pmos W=0.41u L=0.04u
M360 AND2_3908/net6 WX11125 VDD VDD pmos W=0.41u L=0.04u
M361 WX11186 AND2_3907/net6 VSS VSS nmos W=0.31u L=0.04u
M362 AND2_3907/X_u2-net6 RESET VSS VSS nmos W=0.31u L=0.04u
M363 AND2_3907/net6 WX11123 AND2_3907/X_u2-net6 VSS nmos W=0.31u L=0.04u
M364 WX11186 AND2_3907/net6 VDD VDD pmos W=0.41u L=0.04u
M365 AND2_3907/net6 RESET VDD VDD pmos W=0.41u L=0.04u
M366 AND2_3907/net6 WX11123 VDD VDD pmos W=0.41u L=0.04u
M367 WX11184 AND2_3906/net6 VSS VSS nmos W=0.31u L=0.04u
M368 AND2_3906/X_u2-net6 RESET VSS VSS nmos W=0.31u L=0.04u
M369 AND2_3906/net6 WX11121 AND2_3906/X_u2-net6 VSS nmos W=0.31u L=0.04u
M370 WX11184 AND2_3906/net6 VDD VDD pmos W=0.41u L=0.04u
M371 AND2_3906/net6 RESET VDD VDD pmos W=0.41u L=0.04u
M372 AND2_3906/net6 WX11121 VDD VDD pmos W=0.41u L=0.04u
M373 WX11182 AND2_3905/net6 VSS VSS nmos W=0.31u L=0.04u
M374 AND2_3905/X_u2-net6 RESET VSS VSS nmos W=0.31u L=0.04u
M375 AND2_3905/net6 WX11119 AND2_3905/X_u2-net6 VSS nmos W=0.31u L=0.04u
M376 WX11182 AND2_3905/net6 VDD VDD pmos W=0.41u L=0.04u
M377 AND2_3905/net6 RESET VDD VDD pmos W=0.41u L=0.04u
M378 AND2_3905/net6 WX11119 VDD VDD pmos W=0.41u L=0.04u
M379 WX11180 AND2_3904/net6 VSS VSS nmos W=0.31u L=0.04u
M380 AND2_3904/X_u2-net6 RESET VSS VSS nmos W=0.31u L=0.04u
M381 AND2_3904/net6 WX11117 AND2_3904/X_u2-net6 VSS nmos W=0.31u L=0.04u
M382 WX11180 AND2_3904/net6 VDD VDD pmos W=0.41u L=0.04u
M383 AND2_3904/net6 RESET VDD VDD pmos W=0.41u L=0.04u
M384 AND2_3904/net6 WX11117 VDD VDD pmos W=0.41u L=0.04u
M385 WX11178 AND2_3903/net6 VSS VSS nmos W=0.31u L=0.04u
M386 AND2_3903/X_u2-net6 RESET VSS VSS nmos W=0.31u L=0.04u
M387 AND2_3903/net6 WX11115 AND2_3903/X_u2-net6 VSS nmos W=0.31u L=0.04u
M388 WX11178 AND2_3903/net6 VDD VDD pmos W=0.41u L=0.04u
M389 AND2_3903/net6 RESET VDD VDD pmos W=0.41u L=0.04u
M390 AND2_3903/net6 WX11115 VDD VDD pmos W=0.41u L=0.04u
M391 WX11176 AND2_3902/net6 VSS VSS nmos W=0.31u L=0.04u
M392 AND2_3902/X_u2-net6 RESET VSS VSS nmos W=0.31u L=0.04u
M393 AND2_3902/net6 WX11113 AND2_3902/X_u2-net6 VSS nmos W=0.31u L=0.04u
M394 WX11176 AND2_3902/net6 VDD VDD pmos W=0.41u L=0.04u
M395 AND2_3902/net6 RESET VDD VDD pmos W=0.41u L=0.04u
M396 AND2_3902/net6 WX11113 VDD VDD pmos W=0.41u L=0.04u
M397 WX11174 AND2_3901/net6 VSS VSS nmos W=0.31u L=0.04u
M398 AND2_3901/X_u2-net6 RESET VSS VSS nmos W=0.31u L=0.04u
M399 AND2_3901/net6 WX11111 AND2_3901/X_u2-net6 VSS nmos W=0.31u L=0.04u
M400 WX11174 AND2_3901/net6 VDD VDD pmos W=0.41u L=0.04u
M401 AND2_3901/net6 RESET VDD VDD pmos W=0.41u L=0.04u
M402 AND2_3901/net6 WX11111 VDD VDD pmos W=0.41u L=0.04u
M403 WX11172 AND2_3900/net6 VSS VSS nmos W=0.31u L=0.04u
M404 AND2_3900/X_u2-net6 RESET VSS VSS nmos W=0.31u L=0.04u
M405 AND2_3900/net6 WX11109 AND2_3900/X_u2-net6 VSS nmos W=0.31u L=0.04u
M406 WX11172 AND2_3900/net6 VDD VDD pmos W=0.41u L=0.04u
M407 AND2_3900/net6 RESET VDD VDD pmos W=0.41u L=0.04u
M408 AND2_3900/net6 WX11109 VDD VDD pmos W=0.41u L=0.04u
M409 WX11170 AND2_3899/net6 VSS VSS nmos W=0.31u L=0.04u
M410 AND2_3899/X_u2-net6 RESET VSS VSS nmos W=0.31u L=0.04u
M411 AND2_3899/net6 WX11107 AND2_3899/X_u2-net6 VSS nmos W=0.31u L=0.04u
M412 WX11170 AND2_3899/net6 VDD VDD pmos W=0.41u L=0.04u
M413 AND2_3899/net6 RESET VDD VDD pmos W=0.41u L=0.04u
M414 AND2_3899/net6 WX11107 VDD VDD pmos W=0.41u L=0.04u
M415 WX11168 AND2_3898/net6 VSS VSS nmos W=0.31u L=0.04u
M416 AND2_3898/X_u2-net6 RESET VSS VSS nmos W=0.31u L=0.04u
M417 AND2_3898/net6 WX11105 AND2_3898/X_u2-net6 VSS nmos W=0.31u L=0.04u
M418 WX11168 AND2_3898/net6 VDD VDD pmos W=0.41u L=0.04u
M419 AND2_3898/net6 RESET VDD VDD pmos W=0.41u L=0.04u
M420 AND2_3898/net6 WX11105 VDD VDD pmos W=0.41u L=0.04u
M421 WX11166 AND2_3897/net6 VSS VSS nmos W=0.31u L=0.04u
M422 AND2_3897/X_u2-net6 RESET VSS VSS nmos W=0.31u L=0.04u
M423 AND2_3897/net6 WX11103 AND2_3897/X_u2-net6 VSS nmos W=0.31u L=0.04u
M424 WX11166 AND2_3897/net6 VDD VDD pmos W=0.41u L=0.04u
M425 AND2_3897/net6 RESET VDD VDD pmos W=0.41u L=0.04u
M426 AND2_3897/net6 WX11103 VDD VDD pmos W=0.41u L=0.04u
M427 WX11164 AND2_3896/net6 VSS VSS nmos W=0.31u L=0.04u
M428 AND2_3896/X_u2-net6 RESET VSS VSS nmos W=0.31u L=0.04u
M429 AND2_3896/net6 WX11101 AND2_3896/X_u2-net6 VSS nmos W=0.31u L=0.04u
M430 WX11164 AND2_3896/net6 VDD VDD pmos W=0.41u L=0.04u
M431 AND2_3896/net6 RESET VDD VDD pmos W=0.41u L=0.04u
M432 AND2_3896/net6 WX11101 VDD VDD pmos W=0.41u L=0.04u
M433 WX11162 AND2_3895/net6 VSS VSS nmos W=0.31u L=0.04u
M434 AND2_3895/X_u2-net6 RESET VSS VSS nmos W=0.31u L=0.04u