.SUBCKT s953 CK ActBmHS1 ActRtHS1 DumpIIHS1 FullIIHS1 FullOHS1 GoBmHS1 GoRtHS1 IInDoneHS1 LdProgHS1 LoadIIHHS1 LoadOHHS1 LxHIInHS1 Mode0HS1 Mode1HS1 Mode2HS1 NewLineHS1 NewTrHS1 OutAvHS1 OutputHS1 Prog_0 Prog_1 Prog_2 Rdy1BmHS1 Rdy1RtHS1 Rdy2BmHS1 Rdy2RtHS1 ReRtTSHS1 ReWhBufHS1 RtTSHS1 SeFullIIHS1 SeFullOHS1 SeOutAvHS1 ShftIIRHS1 ShftORHS1 TgWhBufHS1 TpArrayHS1 TxHIInHS1 WantBmHS1 WantRtHS1 VDD VSS  
M1 NOR3_4/net7 N182 NOR3_4/X_u4-net10 VSS nmos W=0.31u L=0.04u
M2 NOR3_4/X_u4-net10 N183 NOR3_4/X_u4-net13 VSS nmos W=0.31u L=0.04u
M3 NOR3_4/X_u4-net13 n8 VSS VSS nmos W=0.31u L=0.04u
M4 II29 NOR3_4/net7 VSS VSS nmos W=0.31u L=0.04u
M5 NOR3_4/net7 n8 VDD VDD pmos W=0.41u L=0.04u
M6 NOR3_4/net7 N182 VDD VDD pmos W=0.41u L=0.04u
M7 NOR3_4/net7 N183 VDD VDD pmos W=0.41u L=0.04u
M8 II29 NOR3_4/net7 VDD VDD pmos W=0.41u L=0.04u
M9 II24 NOR2_5/net6 VSS VSS nmos W=0.31u L=0.04u
M10 NOR2_5/X_u2-net6 n190 VSS VSS nmos W=0.31u L=0.04u
M11 NOR2_5/net6 n28 NOR2_5/X_u2-net6 VSS nmos W=0.31u L=0.04u
M12 II24 NOR2_5/net6 VDD VDD pmos W=0.41u L=0.04u
M13 NOR2_5/net6 n190 VDD VDD pmos W=0.41u L=0.04u
M14 NOR2_5/net6 n28 VDD VDD pmos W=0.41u L=0.04u
M15 II27 NOR2_4/net6 VSS VSS nmos W=0.31u L=0.04u
M16 NOR2_4/X_u2-net6 FullIIHS1 VSS VSS nmos W=0.31u L=0.04u
M17 NOR2_4/net6 n28 NOR2_4/X_u2-net6 VSS nmos W=0.31u L=0.04u
M18 II27 NOR2_4/net6 VDD VDD pmos W=0.41u L=0.04u
M19 NOR2_4/net6 FullIIHS1 VDD VDD pmos W=0.41u L=0.04u
M20 NOR2_4/net6 n28 VDD VDD pmos W=0.41u L=0.04u
M21 II28 NOR2_1/net6 VSS VSS nmos W=0.31u L=0.04u
M22 NOR2_1/X_u2-net6 n24 VSS VSS nmos W=0.31u L=0.04u
M23 NOR2_1/net6 n28 NOR2_1/X_u2-net6 VSS nmos W=0.31u L=0.04u
M24 II28 NOR2_1/net6 VDD VDD pmos W=0.41u L=0.04u
M25 NOR2_1/net6 n24 VDD VDD pmos W=0.41u L=0.04u
M26 NOR2_1/net6 n28 VDD VDD pmos W=0.41u L=0.04u
M27 II30 N109 VSS VSS nmos W=0.31u L=0.04u
M28 II30 N109 VDD VDD pmos W=0.41u L=0.04u
M29 II3 N104 VSS VSS nmos W=0.31u L=0.04u
M30 II3 N104 VDD VDD pmos W=0.41u L=0.04u
M31 II22 N107 VSS VSS nmos W=0.31u L=0.04u
M32 II22 N107 VDD VDD pmos W=0.41u L=0.04u
M33 II7 II311 VSS VSS nmos W=0.31u L=0.04u
M34 II7 II311 VDD VDD pmos W=0.41u L=0.04u
M35 II10 II287 VSS VSS nmos W=0.31u L=0.04u
M36 II10 II287 VDD VDD pmos W=0.41u L=0.04u
M37 II20 II297 VSS VSS nmos W=0.31u L=0.04u
M38 II20 II297 VDD VDD pmos W=0.41u L=0.04u
M39 II21 N98 VSS VSS nmos W=0.31u L=0.04u
M40 II21 N98 VDD VDD pmos W=0.41u L=0.04u
M41 II5 N85 VSS VSS nmos W=0.31u L=0.04u
M42 II5 N85 VDD VDD pmos W=0.41u L=0.04u
M43 II9 N100 VSS VSS nmos W=0.31u L=0.04u
M44 II9 N100 VDD VDD pmos W=0.41u L=0.04u
M45 II25 N113 VSS VSS nmos W=0.31u L=0.04u
M46 II25 N113 VDD VDD pmos W=0.41u L=0.04u
M47 II12 N73 VSS VSS nmos W=0.31u L=0.04u
M48 II12 N73 VDD VDD pmos W=0.41u L=0.04u
M49 II15 N83 VSS VSS nmos W=0.31u L=0.04u
M50 II15 N83 VDD VDD pmos W=0.41u L=0.04u
M51 II26 II303 VSS VSS nmos W=0.31u L=0.04u
M52 II26 II303 VDD VDD pmos W=0.41u L=0.04u
M53 II6 N112 VSS VSS nmos W=0.31u L=0.04u
M54 II6 N112 VDD VDD pmos W=0.41u L=0.04u
M55 II17 II294 VSS VSS nmos W=0.31u L=0.04u
M56 II17 II294 VDD VDD pmos W=0.41u L=0.04u
M57 II8 N92 VSS VSS nmos W=0.31u L=0.04u
M58 II8 N92 VDD VDD pmos W=0.41u L=0.04u
M59 II11 N101 VSS VSS nmos W=0.31u L=0.04u
M60 II11 N101 VDD VDD pmos W=0.41u L=0.04u
M61 II18 II295 VSS VSS nmos W=0.31u L=0.04u
M62 II18 II295 VDD VDD pmos W=0.41u L=0.04u
M63 II2 N99 VSS VSS nmos W=0.31u L=0.04u
M64 II2 N99 VDD VDD pmos W=0.41u L=0.04u
M65 II23 II300 VSS VSS nmos W=0.31u L=0.04u
M66 II23 II300 VDD VDD pmos W=0.41u L=0.04u
M67 II4 N84 VSS VSS nmos W=0.31u L=0.04u
M68 II4 N84 VDD VDD pmos W=0.41u L=0.04u
M69 II14 N93 VSS VSS nmos W=0.31u L=0.04u
M70 II14 N93 VDD VDD pmos W=0.41u L=0.04u
M71 II16 n188 VSS VSS nmos W=0.31u L=0.04u
M72 II16 n188 VDD VDD pmos W=0.41u L=0.04u
M73 II19 N67 VSS VSS nmos W=0.31u L=0.04u
M74 II19 N67 VDD VDD pmos W=0.41u L=0.04u
M75 II13 n189 VSS VSS nmos W=0.31u L=0.04u
M76 II13 n189 VDD VDD pmos W=0.41u L=0.04u
M77 n28 OutAvHS1 VSS VSS nmos W=0.135u L=0.04u
M78 n28 OutAvHS1 VDD VDD pmos W=0.205u L=0.04u
M79 N99 n194 VSS VSS nmos W=0.155u L=0.04u
M80 N99 n193 VSS VSS nmos W=0.155u L=0.04u
M81 N99 n192 VSS VSS nmos W=0.155u L=0.04u
M82 N99 n191 VSS VSS nmos W=0.155u L=0.04u
M83 U211/net49 n193 U211/net52 VDD pmos W=0.41u L=0.04u
M84 U211/net52 n194 VDD VDD pmos W=0.41u L=0.04u
M85 U211/net46 n192 U211/net49 VDD pmos W=0.41u L=0.04u
M86 N99 n191 U211/net46 VDD pmos W=0.41u L=0.04u
M87 n194 n189 U212/net10 VSS nmos W=0.155u L=0.04u
M88 U212/net10 n197 VSS VSS nmos W=0.155u L=0.04u
M89 n194 n195 U212/net10 VSS nmos W=0.155u L=0.04u
M90 U212/net10 n196 VSS VSS nmos W=0.155u L=0.04u
M91 U212/net30 n197 VDD VDD pmos W=0.205u L=0.04u
M92 n194 n189 U212/net24 VDD pmos W=0.205u L=0.04u
M93 U212/net24 n195 VDD VDD pmos W=0.205u L=0.04u
M94 n194 n196 U212/net30 VDD pmos W=0.205u L=0.04u
M95 n197 Prog_0 U213/net27 VSS nmos W=0.155u L=0.04u
M96 U213/net27 n198 VSS VSS nmos W=0.155u L=0.04u
M97 n197 n199 VSS VSS nmos W=0.155u L=0.04u
M98 n197 n198 U213/net13 VDD pmos W=0.205u L=0.04u
M99 U213/net13 n199 VDD VDD pmos W=0.205u L=0.04u
M100 n197 Prog_0 U213/net13 VDD pmos W=0.205u L=0.04u
M101 VSS n203 U214/net22 VSS nmos W=0.155u L=0.04u
M102 U214/net22 n202 n192 VSS nmos W=0.155u L=0.04u
M103 U214/net22 n201 n192 VSS nmos W=0.155u L=0.04u
M104 U214/net22 n200 n192 VSS nmos W=0.155u L=0.04u
M105 U214/net38 n200 VDD VDD pmos W=0.205u L=0.04u
M106 U214/net35 n201 U214/net38 VDD pmos W=0.205u L=0.04u
M107 n192 n202 U214/net35 VDD pmos W=0.205u L=0.04u
M108 n192 n203 VDD VDD pmos W=0.205u L=0.04u
M109 U215/net20 n204 VSS VSS nmos W=0.155u L=0.04u
M110 n191 n206 U215/p0 VSS nmos W=0.155u L=0.04u
M111 U215/p2 U215/net20 VSS VSS nmos W=0.155u L=0.04u
M112 U215/p1 n188 U215/p2 VSS nmos W=0.155u L=0.04u
M113 U215/p0 n205 U215/p1 VSS nmos W=0.155u L=0.04u
M114 U215/net20 n204 VDD VDD pmos W=0.205u L=0.04u
M115 n191 n188 VDD VDD pmos W=0.205u L=0.04u
M116 n191 n206 VDD VDD pmos W=0.205u L=0.04u
M117 n191 n205 VDD VDD pmos W=0.205u L=0.04u
M118 n191 U215/net20 VDD VDD pmos W=0.205u L=0.04u
M119 U216/net29 n210 VSS VSS nmos W=0.155u L=0.04u
M120 n206 n209 U216/net29 VSS nmos W=0.155u L=0.04u
M121 n206 n207 U216/net23 VSS nmos W=0.155u L=0.04u
M122 U216/net23 n208 VSS VSS nmos W=0.155u L=0.04u
M123 U216/net20 n208 n206 VDD pmos W=0.205u L=0.04u
M124 U216/net20 n207 n206 VDD pmos W=0.205u L=0.04u
M125 VDD n209 U216/net20 VDD pmos W=0.205u L=0.04u
M126 VDD n210 U216/net20 VDD pmos W=0.205u L=0.04u
M127 n210 Rdy1RtHS1 U217/net10 VSS nmos W=0.155u L=0.04u
M128 U217/net10 n211 VSS VSS nmos W=0.155u L=0.04u
M129 n210 Rdy1BmHS1 U217/net10 VSS nmos W=0.155u L=0.04u
M130 U217/net10 n201 VSS VSS nmos W=0.155u L=0.04u
M131 U217/net30 n211 VDD VDD pmos W=0.205u L=0.04u
M132 n210 Rdy1RtHS1 U217/net24 VDD pmos W=0.205u L=0.04u
M133 U217/net24 Rdy1BmHS1 VDD VDD pmos W=0.205u L=0.04u
M134 n210 n201 U217/net30 VDD pmos W=0.205u L=0.04u
M135 U218/XU1-net6 n213 VSS VSS nmos W=0.155u L=0.04u
M136 n207 n212 U218/XU1-net6 VSS nmos W=0.155u L=0.04u
M137 n207 n213 VDD VDD pmos W=0.155u L=0.04u
M138 n207 n212 VDD VDD pmos W=0.155u L=0.04u
M139 N98 n216 VSS VSS nmos W=0.155u L=0.04u
M140 N98 n8 VSS VSS nmos W=0.155u L=0.04u
M141 N98 n215 VSS VSS nmos W=0.155u L=0.04u
M142 N98 n214 VSS VSS nmos W=0.155u L=0.04u
M143 U219/net49 n8 U219/net52 VDD pmos W=0.41u L=0.04u
M144 U219/net52 n216 VDD VDD pmos W=0.41u L=0.04u
M145 U219/net46 n215 U219/net49 VDD pmos W=0.41u L=0.04u
M146 N98 n214 U219/net46 VDD pmos W=0.41u L=0.04u
M147 U220/net11 n217 n215 VDD pmos W=0.205u L=0.04u
M148 U220/net11 n218 n215 VDD pmos W=0.205u L=0.04u
M149 U220/net11 n219 U220/XI16-net11 VDD pmos W=0.205u L=0.04u
M150 U220/XI16-net11 Prog_2 VDD VDD pmos W=0.205u L=0.04u
M151 n215 Prog_2 VSS VSS nmos W=0.155u L=0.04u
M152 n215 n219 VSS VSS nmos W=0.155u L=0.04u
M153 n215 n217 U220/XI12-net17 VSS nmos W=0.155u L=0.04u
M154 U220/XI12-net17 n218 VSS VSS nmos W=0.155u L=0.04u
M155 U221/XU1-net6 n221 VSS VSS nmos W=0.155u L=0.04u
M156 n218 n220 U221/XU1-net6 VSS nmos W=0.155u L=0.04u
M157 n218 n221 VDD VDD pmos W=0.155u L=0.04u
M158 n218 n220 VDD VDD pmos W=0.155u L=0.04u
M159 U222/net19 n224 VSS VSS nmos W=0.155u L=0.04u
M160 n217 n224 U222/net40 VSS nmos W=0.155u L=0.04u
M161 n217 U222/net19 U222/net36 VSS nmos W=0.155u L=0.04u
M162 U222/net40 n223 VSS VSS nmos W=0.31u L=0.04u
M163 U222/net36 n222 VSS VSS nmos W=0.155u L=0.04u
M164 U222/net19 n224 VDD VDD pmos W=0.205u L=0.04u
M165 n217 U222/net19 U222/net26 VDD pmos W=0.325u L=0.04u
M166 U222/net26 n223 VDD VDD pmos W=0.41u L=0.04u
M167 n217 n224 U222/net30 VDD pmos W=0.325u L=0.04u
M168 U222/net30 n222 VDD VDD pmos W=0.205u L=0.04u
M169 n223 FullOHS1 U223/net10 VSS nmos W=0.155u L=0.04u
M170 U223/net10 FullIIHS1 VSS VSS nmos W=0.155u L=0.04u
M171 n223 n225 U223/net10 VSS nmos W=0.155u L=0.04u
M172 U223/net10 Rdy1BmHS1 VSS VSS nmos W=0.155u L=0.04u
M173 U223/net30 FullIIHS1 VDD VDD pmos W=0.205u L=0.04u
M174 n223 FullOHS1 U223/net24 VDD pmos W=0.205u L=0.04u
M175 U223/net24 n225 VDD VDD pmos W=0.205u L=0.04u
M176 n223 Rdy1BmHS1 U223/net30 VDD pmos W=0.205u L=0.04u
M177 n222 FullIIHS1 VSS VSS nmos W=0.155u L=0.04u
M178 n222 n226 VSS VSS nmos W=0.155u L=0.04u
M179 U224/XI1-net8 n226 VDD VDD pmos W=0.205u L=0.04u
M180 n222 FullIIHS1 U224/XI1-net8 VDD pmos W=0.205u L=0.04u
M181 U225/net11 n227 N93 VDD pmos W=0.205u L=0.04u
M182 U225/net11 n228 N93 VDD pmos W=0.205u L=0.04u
M183 U225/net11 n229 U225/XI16-net11 VDD pmos W=0.205u L=0.04u
M184 U225/XI16-net11 n230 VDD VDD pmos W=0.205u L=0.04u
M185 N93 n230 VSS VSS nmos W=0.155u L=0.04u
M186 N93 n229 VSS VSS nmos W=0.155u L=0.04u
M187 N93 n227 U225/XI12-net17 VSS nmos W=0.155u L=0.04u
M188 U225/XI12-net17 n228 VSS VSS nmos W=0.155u L=0.04u
M189 U226/net19 n224 VSS VSS nmos W=0.155u L=0.04u
M190 n229 n224 U226/net40 VSS nmos W=0.155u L=0.04u
M191 n229 U226/net19 U226/net36 VSS nmos W=0.155u L=0.04u
M192 U226/net40 n231 VSS VSS nmos W=0.31u L=0.04u
M193 U226/net36 n188 VSS VSS nmos W=0.155u L=0.04u
M194 U226/net19 n224 VDD VDD pmos W=0.205u L=0.04u
M195 n229 U226/net19 U226/net26 VDD pmos W=0.325u L=0.04u
M196 U226/net26 n231 VDD VDD pmos W=0.41u L=0.04u
M197 n229 n224 U226/net30 VDD pmos W=0.325u L=0.04u
M198 U226/net30 n188 VDD VDD pmos W=0.205u L=0.04u
M199 N92 n227 VSS VSS nmos W=0.155u L=0.04u
M200 N92 n233 VSS VSS nmos W=0.155u L=0.04u
M201 N92 n232 VSS VSS nmos W=0.155u L=0.04u
M202 N92 n230 VSS VSS nmos W=0.155u L=0.04u
M203 U227/net49 n233 U227/net52 VDD pmos W=0.41u L=0.04u
M204 U227/net52 n227 VDD VDD pmos W=0.41u L=0.04u
M205 U227/net46 n232 U227/net49 VDD pmos W=0.41u L=0.04u
M206 N92 n230 U227/net46 VDD pmos W=0.41u L=0.04u
M207 n227 U228/net6 VSS VSS nmos W=0.155u L=0.04u
M208 U228/X_u2-net6 State_2 VSS VSS nmos W=0.155u L=0.04u
M209 U228/net6 n199 U228/X_u2-net6 VSS nmos W=0.155u L=0.04u
M210 n227 U228/net6 VDD VDD pmos W=0.205u L=0.04u
M211 U228/net6 State_2 VDD VDD pmos W=0.205u L=0.04u
M212 U228/net6 n199 VDD VDD pmos W=0.205u L=0.04u
M213 n232 n224 VSS VSS nmos W=0.155u L=0.04u
M214 n232 n231 VSS VSS nmos W=0.155u L=0.04u
M215 U229/XI1-net8 n231 VDD VDD pmos W=0.205u L=0.04u
M216 n232 n224 U229/XI1-net8 VDD pmos W=0.205u L=0.04u
M217 n230 U230/net6 VSS VSS nmos W=0.155u L=0.04u
M218 U230/net6 Prog_0 U230/XU30-net23 VSS nmos W=0.155u L=0.04u
M219 U230/XU30-net23 n209 U230/XU30-net26 VSS nmos W=0.155u L=0.04u
M220 U230/XU30-net26 n234 U230/XU30-net29 VSS nmos W=0.155u L=0.04u
M221 U230/XU30-net29 n211 VSS VSS nmos W=0.155u L=0.04u
M222 n230 U230/net6 VDD VDD pmos W=0.205u L=0.04u
M223 U230/net6 n211 VDD VDD pmos W=0.205u L=0.04u
M224 U230/net6 n234 VDD VDD pmos W=0.205u L=0.04u
M225 U230/net6 n209 VDD VDD pmos W=0.205u L=0.04u
M226 U230/net6 Prog_0 VDD VDD pmos W=0.205u L=0.04u
M227 N85 n238 VSS VSS nmos W=0.155u L=0.04u
M228 N85 n237 VSS VSS nmos W=0.155u L=0.04u
M229 N85 n236 VSS VSS nmos W=0.155u L=0.04u
M230 N85 n235 VSS VSS nmos W=0.155u L=0.04u
M231 U231/net49 n237 U231/net52 VDD pmos W=0.41u L=0.04u
M232 U231/net52 n238 VDD VDD pmos W=0.41u L=0.04u
M233 U231/net46 n236 U231/net49 VDD pmos W=0.41u L=0.04u
M234 N85 n235 U231/net46 VDD pmos W=0.41u L=0.04u
M235 n235 n240 U232/net26 VSS nmos W=0.155u L=0.04u
M236 n235 n239 U232/net26 VSS nmos W=0.155u L=0.04u
M237 U232/net29 n242 VSS VSS nmos W=0.155u L=0.04u
M238 U232/net26 IInDoneHS1 U232/net29 VSS nmos W=0.155u L=0.04u
M239 U232/net26 n241 U232/net29 VSS nmos W=0.155u L=0.04u
M240 n235 n239 U232/net43 VDD pmos W=0.205u L=0.04u
M241 n235 n241 U232/net49 VDD pmos W=0.205u L=0.04u
M242 U232/net49 IInDoneHS1 VDD VDD pmos W=0.205u L=0.04u
M243 U232/net43 n240 VDD VDD pmos W=0.205u L=0.04u
M244 n235 n242 VDD VDD pmos W=0.205u L=0.04u
M245 U233/net11 n243 N84 VDD pmos W=0.205u L=0.04u
M246 U233/net11 n234 N84 VDD pmos W=0.205u L=0.04u
M247 U233/net11 n244 U233/XI16-net11 VDD pmos W=0.205u L=0.04u
M248 U233/XI16-net11 n245 VDD VDD pmos W=0.205u L=0.04u
M249 N84 n245 VSS VSS nmos W=0.155u L=0.04u
M250 N84 n244 VSS VSS nmos W=0.155u L=0.04u
M251 N84 n243 U233/XI12-net17 VSS nmos W=0.155u L=0.04u
M252 U233/XI12-net17 n234 VSS VSS nmos W=0.155u L=0.04u
M253 U234/net32 n214 VSS VSS nmos W=0.155u L=0.04u
M254 U234/net59 n246 U234/net32 VSS nmos W=0.155u L=0.04u
M255 U234/net59 n247 VSS VSS nmos W=0.155u L=0.04u
M256 n244 U234/net59 VSS VSS nmos W=0.155u L=0.04u
M257 n244 U234/net59 VDD VDD pmos W=0.2u L=0.04u
M258 U234/net59 n246 U234/net22 VDD pmos W=0.205u L=0.04u
M259 U234/net59 n214 U234/net22 VDD pmos W=0.205u L=0.04u
M260 U234/net22 n247 VDD VDD pmos W=0.2u L=0.04u
M261 U235/net36 n248 U235/net24 VSS nmos W=0.155u L=0.04u
M262 U235/net24 n205 VSS VSS nmos W=0.155u L=0.04u
M263 U235/net33 n195 U235/net36 VSS nmos W=0.155u L=0.04u
M264 U235/net33 n188 U235/net36 VSS nmos W=0.155u L=0.04u
M265 N83 U235/net33 VSS VSS nmos W=0.155u L=0.04u
M266 N83 U235/net33 VDD VDD pmos W=0.205u L=0.04u
M267 U235/net33 n188 U235/net35 VDD pmos W=0.205u L=0.04u
M268 U235/net35 n195 VDD VDD pmos W=0.205u L=0.04u
M269 U235/net33 n205 VDD VDD pmos W=0.205u L=0.04u
M270 U235/net33 n248 VDD VDD pmos W=0.205u L=0.04u
M271 n205 n249 U236/XI0-net10 VSS nmos W=0.155u L=0.04u
M272 U236/XI0-net10 n250 U236/XI0-net13 VSS nmos W=0.155u L=0.04u
M273 U236/XI0-net13 n251 VSS VSS nmos W=0.155u L=0.04u
M274 n205 n251 VDD VDD pmos W=0.205u L=0.04u
M275 n205 n249 VDD VDD pmos W=0.205u L=0.04u
M276 n205 n250 VDD VDD pmos W=0.205u L=0.04u
M277 n195 Prog_1 VSS VSS nmos W=0.135u L=0.04u
M278 n195 Prog_1 VDD VDD pmos W=0.205u L=0.04u
M279 N73 n252 VSS VSS nmos W=0.135u L=0.04u
M280 N73 n252 VDD VDD pmos W=0.205u L=0.04u
M281 U239/net11 n253 N113 VDD pmos W=0.205u L=0.04u
M282 U239/net11 n221 N113 VDD pmos W=0.205u L=0.04u
M283 U239/net11 n254 U239/XI16-net11 VDD pmos W=0.205u L=0.04u
M284 U239/XI16-net11 n255 VDD VDD pmos W=0.205u L=0.04u
M285 N113 n255 VSS VSS nmos W=0.155u L=0.04u
M286 N113 n254 VSS VSS nmos W=0.155u L=0.04u
M287 N113 n253 U239/XI12-net17 VSS nmos W=0.155u L=0.04u
M288 U239/XI12-net17 n221 VSS VSS nmos W=0.155u L=0.04u
M289 U240/net36 n258 U240/net24 VSS nmos W=0.155u L=0.04u
M290 U240/net24 n259 VSS VSS nmos W=0.155u L=0.04u
M291 n254 n256 U240/net36 VSS nmos W=0.155u L=0.04u
M292 n254 n257 U240/net36 VSS nmos W=0.155u L=0.04u
M293 n254 n257 U240/net35 VDD pmos W=0.205u L=0.04u
M294 U240/net35 n256 VDD VDD pmos W=0.205u L=0.04u
M295 n254 n259 VDD VDD pmos W=0.205u L=0.04u
M296 n254 n258 VDD VDD pmos W=0.205u L=0.04u
M297 U241/p2 n221 VSS VSS nmos W=0.155u L=0.04u
M298 U241/p0 n220 U241/p1 VSS nmos W=0.155u L=0.04u
M299 U241/p1 Rdy2RtHS1 U241/p2 VSS nmos W=0.155u L=0.04u
M300 n258 n260 U241/p0 VSS nmos W=0.155u L=0.04u
M301 n258 Rdy2RtHS1 VDD VDD pmos W=0.205u L=0.04u
M302 n258 n220 VDD VDD pmos W=0.205u L=0.04u
M303 n258 n260 VDD VDD pmos W=0.205u L=0.04u
M304 n258 n221 VDD VDD pmos W=0.205u L=0.04u
M305 n256 OutputHS1 U242/net27 VSS nmos W=0.155u L=0.04u
M306 U242/net27 n233 VSS VSS nmos W=0.155u L=0.04u
M307 n256 n261 VSS VSS nmos W=0.155u L=0.04u
M308 n256 n233 U242/net13 VDD pmos W=0.205u L=0.04u
M309 U242/net13 n261 VDD VDD pmos W=0.205u L=0.04u
M310 n256 OutputHS1 U242/net13 VDD pmos W=0.205u L=0.04u
M311 N112 U243/net15 VSS VSS nmos W=0.155u L=0.04u
M312 N112 n263 VSS VSS nmos W=0.155u L=0.04u
M313 N112 n264 VSS VSS nmos W=0.155u L=0.04u
M314 N112 n265 VSS VSS nmos W=0.155u L=0.04u
M315 U243/net15 n262 VSS VSS nmos W=0.155u L=0.04u
M316 N112 n265 U243/XU8-net7 VDD pmos W=0.41u L=0.04u
M317 U243/XU8-net7 n264 U243/XU8-net10 VDD pmos W=0.41u L=0.04u
M318 U243/XU8-net10 n263 U243/XU8-net13 VDD pmos W=0.41u L=0.04u
M319 U243/XU8-net13 U243/net15 VDD VDD pmos W=0.41u L=0.04u
M320 U243/net15 n262 VDD VDD pmos W=0.31u L=0.04u
M321 n264 n266 U244/net15 VSS nmos W=0.155u L=0.04u
M322 n264 n225 U244/net15 VSS nmos W=0.155u L=0.04u
M323 U244/net15 n267 VSS VSS nmos W=0.155u L=0.04u
M324 n264 n267 VDD VDD pmos W=0.205u L=0.04u
M325 n264 n266 U244/XI16-net11 VDD pmos W=0.205u L=0.04u
M326 U244/XI16-net11 n225 VDD VDD pmos W=0.205u L=0.04u
M327 U245/net29 n270 VSS VSS nmos W=0.155u L=0.04u
M328 n266 WantBmHS1 U245/net29 VSS nmos W=0.155u L=0.04u
M329 n266 n268 U245/net23 VSS nmos W=0.155u L=0.04u
M330 U245/net23 n269 VSS VSS nmos W=0.155u L=0.04u
M331 U245/net20 n269 n266 VDD pmos W=0.205u L=0.04u
M332 U245/net20 n268 n266 VDD pmos W=0.205u L=0.04u
M333 VDD WantBmHS1 U245/net20 VDD pmos W=0.205u L=0.04u
M334 VDD n270 U245/net20 VDD pmos W=0.205u L=0.04u
M335 n270 State_1 U246/net15 VSS nmos W=0.155u L=0.04u
M336 n270 n271 U246/net15 VSS nmos W=0.155u L=0.04u
M337 U246/net15 n272 VSS VSS nmos W=0.155u L=0.04u
M338 n270 n272 VDD VDD pmos W=0.205u L=0.04u
M339 n270 State_1 U246/XI16-net11 VDD pmos W=0.205u L=0.04u
M340 U246/XI16-net11 n271 VDD VDD pmos W=0.205u L=0.04u
M341 U247/net36 n275 U247/net24 VSS nmos W=0.155u L=0.04u
M342 U247/net24 n276 VSS VSS nmos W=0.155u L=0.04u
M343 n263 n273 U247/net36 VSS nmos W=0.155u L=0.04u
M344 n263 n274 U247/net36 VSS nmos W=0.155u L=0.04u
M345 n263 n274 U247/net35 VDD pmos W=0.205u L=0.04u
M346 U247/net35 n273 VDD VDD pmos W=0.205u L=0.04u
M347 n263 n276 VDD VDD pmos W=0.205u L=0.04u
M348 n263 n275 VDD VDD pmos W=0.205u L=0.04u
M349 n276 State_1 U248/net23 VDD pmos W=0.205u L=0.04u
M350 n276 n278 U248/net23 VDD pmos W=0.205u L=0.04u
M351 n276 n277 U248/net23 VDD pmos W=0.205u L=0.04u
M352 U248/net23 n245 VDD VDD pmos W=0.205u L=0.04u
M353 U248/net23 n257 VDD VDD pmos W=0.205u L=0.04u
M354 U248/XI20-net13 n278 VSS VSS nmos W=0.155u L=0.04u
M355 n276 State_1 U248/XI20-net17 VSS nmos W=0.155u L=0.04u
M356 U248/XI20-net17 n277 U248/XI20-net13 VSS nmos W=0.155u L=0.04u
M357 n276 n245 U248/XI17-net17 VSS nmos W=0.155u L=0.04u
M358 U248/XI17-net17 n257 VSS VSS nmos W=0.155u L=0.04u
M359 n278 N182 VSS VSS nmos W=0.155u L=0.04u
M360 n278 n196 VSS VSS nmos W=0.155u L=0.04u
M361 U249/XI1-net8 n196 VDD VDD pmos W=0.205u L=0.04u
M362 n278 N182 U249/XI1-net8 VDD pmos W=0.205u L=0.04u
M363 U250/net36 n281 U250/net24 VSS nmos W=0.155u L=0.04u
M364 U250/net24 n199 VSS VSS nmos W=0.155u L=0.04u
M365 n275 n279 U250/net36 VSS nmos W=0.155u L=0.04u
M366 n275 n280 U250/net36 VSS nmos W=0.155u L=0.04u
M367 n275 n280 U250/net35 VDD pmos W=0.205u L=0.04u
M368 U250/net35 n279 VDD VDD pmos W=0.205u L=0.04u
M369 n275 n199 VDD VDD pmos W=0.205u L=0.04u
M370 n275 n281 VDD VDD pmos W=0.205u L=0.04u
M371 n281 n282 VSS VSS nmos W=0.135u L=0.04u
M372 n281 n282 VDD VDD pmos W=0.205u L=0.04u
M373 N109 n283 VSS VSS nmos W=0.155u L=0.04u
M374 N109 n284 VSS VSS nmos W=0.155u L=0.04u
M375 U252/XI1-net8 n284 VDD VDD pmos W=0.205u L=0.04u
M376 N109 n283 U252/XI1-net8 VDD pmos W=0.205u L=0.04u
M377 n284 n285 VSS VSS nmos W=0.155u L=0.04u
M378 n284 n272 VSS VSS nmos W=0.155u L=0.04u
M379 n284 Prog_0 VSS VSS nmos W=0.155u L=0.04u
M380 n284 WantBmHS1 VSS VSS nmos W=0.155u L=0.04u
M381 U253/net49 n272 U253/net52 VDD pmos W=0.41u L=0.04u
M382 U253/net52 n285 VDD VDD pmos W=0.41u L=0.04u
M383 U253/net46 Prog_0 U253/net49 VDD pmos W=0.41u L=0.04u
M384 n284 WantBmHS1 U253/net46 VDD pmos W=0.41u L=0.04u
M385 N107 U254/net15 VSS VSS nmos W=0.155u L=0.04u
M386 N107 n287 VSS VSS nmos W=0.155u L=0.04u
M387 N107 n288 VSS VSS nmos W=0.155u L=0.04u
M388 N107 n289 VSS VSS nmos W=0.155u L=0.04u
M389 U254/net15 n286 VSS VSS nmos W=0.155u L=0.04u
M390 N107 n289 U254/XU8-net7 VDD pmos W=0.41u L=0.04u
M391 U254/XU8-net7 n288 U254/XU8-net10 VDD pmos W=0.41u L=0.04u
M392 U254/XU8-net10 n287 U254/XU8-net13 VDD pmos W=0.41u L=0.04u
M393 U254/XU8-net13 U254/net15 VDD VDD pmos W=0.41u L=0.04u
M394 U254/net15 n286 VDD VDD pmos W=0.31u L=0.04u
M395 n288 WantBmHS1 U255/net15 VSS nmos W=0.155u L=0.04u
M396 n288 n290 U255/net15 VSS nmos W=0.155u L=0.04u
M397 U255/net15 n259 VSS VSS nmos W=0.155u L=0.04u
M398 n288 n259 VDD VDD pmos W=0.205u L=0.04u
M399 n288 WantBmHS1 U255/XI16-net11 VDD pmos W=0.205u L=0.04u
M400 U255/XI16-net11 n290 VDD VDD pmos W=0.205u L=0.04u
M401 U256/net17 Rdy2RtHS1 VSS VSS nmos W=0.155u L=0.04u
M402 U256/net17 n271 VSS VSS nmos W=0.155u L=0.04u
M403 U256/net63 n285 VSS VSS nmos W=0.155u L=0.04u
M404 n290 U256/net17 VSS VSS nmos W=0.155u L=0.04u
M405 n290 n291 U256/net63 VSS nmos W=0.155u L=0.04u
M406 n290 n285 U256/net31 VDD pmos W=0.205u L=0.04u
M407 U256/net39 Rdy2RtHS1 VDD VDD pmos W=0.195u L=0.04u
M408 U256/net31 U256/net17 VDD VDD pmos W=0.195u L=0.04u
M409 n290 n291 U256/net31 VDD pmos W=0.195u L=0.04u
M410 U256/net17 n271 U256/net39 VDD pmos W=0.195u L=0.04u
M411 U257/net36 n293 U257/net24 VSS nmos W=0.155u L=0.04u
M412 U257/net24 n294 VSS VSS nmos W=0.155u L=0.04u
M413 n287 FullOHS1 U257/net36 VSS nmos W=0.155u L=0.04u
M414 n287 n292 U257/net36 VSS nmos W=0.155u L=0.04u
M415 n287 n292 U257/net35 VDD pmos W=0.205u L=0.04u
M416 U257/net35 FullOHS1 VDD VDD pmos W=0.205u L=0.04u
M417 n287 n294 VDD VDD pmos W=0.205u L=0.04u
M418 n287 n293 VDD VDD pmos W=0.205u L=0.04u
M419 n294 n255 VSS VSS nmos W=0.135u L=0.04u
M420 n294 n255 VDD VDD pmos W=0.205u L=0.04u
M421 n255 n295 U259/net14 VSS nmos W=0.155u L=0.04u
M422 U259/net14 n246 VSS VSS nmos W=0.155u L=0.04u
M423 U259/net14 n242 VSS VSS nmos W=0.155u L=0.04u
M424 n255 n296 U259/net14 VSS nmos W=0.155u L=0.04u
M425 n255 N183 U259/net14 VSS nmos W=0.155u L=0.04u
M426 n255 n246 U259/XI16-net11 VDD pmos W=0.205u L=0.04u
M427 U259/XI16-net11 n242 VDD VDD pmos W=0.205u L=0.04u
M428 n255 n296 U259/XI15-net11 VDD pmos W=0.205u L=0.04u
M429 U259/XI15-net11 N183 U259/XI15-net18 VDD pmos W=0.205u L=0.04u
M430 U259/XI15-net18 n295 VDD VDD pmos W=0.205u L=0.04u
M431 n246 TpArrayHS1 VSS VSS nmos W=0.135u L=0.04u
M432 n246 TpArrayHS1 VDD VDD pmos W=0.205u L=0.04u
M433 U261/XU1-net6 State_1 VSS VSS nmos W=0.155u L=0.04u
M434 n242 n214 U261/XU1-net6 VSS nmos W=0.155u L=0.04u
M435 n242 State_1 VDD VDD pmos W=0.155u L=0.04u
M436 n242 n214 VDD VDD pmos W=0.155u L=0.04u
M437 U262/net20 n297 VSS VSS nmos W=0.155u L=0.04u
M438 n293 n221 U262/p0 VSS nmos W=0.155u L=0.04u
M439 U262/p2 U262/net20 VSS VSS nmos W=0.155u L=0.04u
M440 U262/p1 n298 U262/p2 VSS nmos W=0.155u L=0.04u
M441 U262/p0 n208 U262/p1 VSS nmos W=0.155u L=0.04u
M442 U262/net20 n297 VDD VDD pmos W=0.205u L=0.04u
M443 n293 n298 VDD VDD pmos W=0.205u L=0.04u
M444 n293 n221 VDD VDD pmos W=0.205u L=0.04u
M445 n293 n208 VDD VDD pmos W=0.205u L=0.04u
M446 n293 U262/net20 VDD VDD pmos W=0.205u L=0.04u
M447 N104 n299 VSS VSS nmos W=0.155u L=0.04u
M448 N104 n300 VSS VSS nmos W=0.155u L=0.04u
M449 U263/XI1-net8 n300 VDD VDD pmos W=0.205u L=0.04u
M450 N104 n299 U263/XI1-net8 VDD pmos W=0.205u L=0.04u
M451 n300 n272 U264/net14 VSS nmos W=0.155u L=0.04u
M452 U264/net14 n188 VSS VSS nmos W=0.155u L=0.04u
M453 U264/net14 IInDoneHS1 VSS VSS nmos W=0.155u L=0.04u
M454 n300 n224 U264/net14 VSS nmos W=0.155u L=0.04u
M455 n300 n301 U264/net14 VSS nmos W=0.155u L=0.04u
M456 n300 n188 U264/XI16-net11 VDD pmos W=0.205u L=0.04u
M457 U264/XI16-net11 IInDoneHS1 VDD VDD pmos W=0.205u L=0.04u
M458 n300 n224 U264/XI15-net11 VDD pmos W=0.205u L=0.04u
M459 U264/XI15-net11 n301 U264/XI15-net18 VDD pmos W=0.205u L=0.04u
M460 U264/XI15-net18 n272 VDD VDD pmos W=0.205u L=0.04u
M461 n299 n302 U265/net14 VSS nmos W=0.155u L=0.04u
M462 U265/net14 n228 VSS VSS nmos W=0.155u L=0.04u
M463 U265/net14 n305 VSS VSS nmos W=0.155u L=0.04u
M464 n299 n304 U265/net14 VSS nmos W=0.155u L=0.04u
M465 n299 n303 U265/net14 VSS nmos W=0.155u L=0.04u
M466 n299 n228 U265/XI16-net11 VDD pmos W=0.205u L=0.04u
M467 U265/XI16-net11 n305 VDD VDD pmos W=0.205u L=0.04u
M468 n299 n304 U265/XI15-net11 VDD pmos W=0.205u L=0.04u
M469 U265/XI15-net11 n303 U265/XI15-net18 VDD pmos W=0.205u L=0.04u
M470 U265/XI15-net18 n302 VDD VDD pmos W=0.205u L=0.04u
M471 n305 n193 VSS VSS nmos W=0.155u L=0.04u
M472 n305 n199 U266/XI17-net17 VSS nmos W=0.155u L=0.04u
M473 U266/XI17-net17 n226 VSS VSS nmos W=0.155u L=0.04u
M474 n305 n306 U266/XI10-net17 VSS nmos W=0.155u L=0.04u
M475 U266/XI10-net17 n225 VSS VSS nmos W=0.155u L=0.04u
M476 U266/net30 n306 n305 VDD pmos W=0.205u L=0.04u
M477 U266/net30 n225 n305 VDD pmos W=0.205u L=0.04u
M478 VDD n193 U266/net36 VDD pmos W=0.205u L=0.04u
M479 U266/net36 n226 U266/net30 VDD pmos W=0.205u L=0.04u
M480 U266/net36 n199 U266/net30 VDD pmos W=0.205u L=0.04u
M481 n304 Rdy2BmHS1 U267/net27 VSS nmos W=0.155u L=0.04u
M482 U267/net27 n307 VSS VSS nmos W=0.155u L=0.04u
M483 n304 n308 VSS VSS nmos W=0.155u L=0.04u
M484 n304 n307 U267/net13 VDD pmos W=0.205u L=0.04u
M485 U267/net13 n308 VDD VDD pmos W=0.205u L=0.04u
M486 n304 Rdy2BmHS1 U267/net13 VDD pmos W=0.205u L=0.04u
M487 N101 n236 VSS VSS nmos W=0.155u L=0.04u
M488 N101 n238 VSS VSS nmos W=0.155u L=0.04u
M489 N101 n310 VSS VSS nmos W=0.155u L=0.04u
M490 N101 n309 VSS VSS nmos W=0.155u L=0.04u
M491 U268/net49 n238 U268/net52 VDD pmos W=0.41u L=0.04u
M492 U268/net52 n236 VDD VDD pmos W=0.41u L=0.04u
M493 U268/net46 n310 U268/net49 VDD pmos W=0.41u L=0.04u
M494 N101 n309 U268/net46 VDD pmos W=0.41u L=0.04u
M495 n236 U269/net6 VSS VSS nmos W=0.155u L=0.04u
M496 U269/X_u2-net6 n311 VSS VSS nmos W=0.155u L=0.04u
M497 U269/net6 n268 U269/X_u2-net6 VSS nmos W=0.155u L=0.04u
M498 n236 U269/net6 VDD VDD pmos W=0.205u L=0.04u
M499 U269/net6 n311 VDD VDD pmos W=0.205u L=0.04u
M500 U269/net6 n268 VDD VDD pmos W=0.205u L=0.04u
M501 U270/net7 n312 U270/X_u4-net10 VSS nmos W=0.155u L=0.04u
M502 U270/X_u4-net10 n313 U270/X_u4-net13 VSS nmos W=0.155u L=0.04u
M503 U270/X_u4-net13 State_0 VSS VSS nmos W=0.155u L=0.04u
M504 n268 U270/net7 VSS VSS nmos W=0.155u L=0.04u
M505 U270/net7 State_0 VDD VDD pmos W=0.205u L=0.04u
M506 U270/net7 n312 VDD VDD pmos W=0.205u L=0.04u
M507 U270/net7 n313 VDD VDD pmos W=0.205u L=0.04u
M508 n268 U270/net7 VDD VDD pmos W=0.205u L=0.04u
M509 n309 n314 U271/net10 VSS nmos W=0.155u L=0.04u
M510 U271/net10 n316 VSS VSS nmos W=0.155u L=0.04u
M511 n309 n286 U271/net10 VSS nmos W=0.155u L=0.04u
M512 U271/net10 n315 VSS VSS nmos W=0.155u L=0.04u
M513 U271/net30 n316 VDD VDD pmos W=0.205u L=0.04u
M514 n309 n314 U271/net24 VDD pmos W=0.205u L=0.04u
M515 U271/net24 n286 VDD VDD pmos W=0.205u L=0.04u
M516 n309 n315 U271/net30 VDD pmos W=0.205u L=0.04u
M517 n316 n298 U272/net27 VSS nmos W=0.155u L=0.04u
M518 U272/net27 n311 VSS VSS nmos W=0.155u L=0.04u
M519 n316 n253 VSS VSS nmos W=0.155u L=0.04u
M520 n316 n311 U272/net13 VDD pmos W=0.205u L=0.04u
M521 U272/net13 n253 VDD VDD pmos W=0.205u L=0.04u
M522 n316 n298 U272/net13 VDD pmos W=0.205u L=0.04u
M523 n253 n317 VSS VSS nmos W=0.135u L=0.04u
M524 n253 n317 VDD VDD pmos W=0.205u L=0.04u
M525 U274/net20 n303 VSS VSS nmos W=0.155u L=0.04u
M526 n286 n319 U274/p0 VSS nmos W=0.155u L=0.04u
M527 U274/p2 U274/net20 VSS VSS nmos W=0.155u L=0.04u
M528 U274/p1 n311 U274/p2 VSS nmos W=0.155u L=0.04u
M529 U274/p0 n318 U274/p1 VSS nmos W=0.155u L=0.04u
M530 U274/net20 n303 VDD VDD pmos W=0.205u L=0.04u
M531 n286 n311 VDD VDD pmos W=0.205u L=0.04u
M532 n286 n319 VDD VDD pmos W=0.205u L=0.04u
M533 n286 n318 VDD VDD pmos W=0.205u L=0.04u
M534 n286 U274/net20 VDD VDD pmos W=0.205u L=0.04u
M535 n319 State_4 VSS VSS nmos W=0.155u L=0.04u
M536 n319 n190 VSS VSS nmos W=0.155u L=0.04u
M537 U275/XI1-net8 n190 VDD VDD pmos W=0.205u L=0.04u
M538 n319 State_4 U275/XI1-net8 VDD pmos W=0.205u L=0.04u
M539 n303 n285 VSS VSS nmos W=0.155u L=0.04u
M540 n303 n320 VSS VSS nmos W=0.155u L=0.04u
M541 U276/XI1-net8 n320 VDD VDD pmos W=0.205u L=0.04u
M542 n303 n285 U276/XI1-net8 VDD pmos W=0.205u L=0.04u
M543 U277/net11 n306 N100 VDD pmos W=0.205u L=0.04u
M544 U277/net11 State_2 N100 VDD pmos W=0.205u L=0.04u
M545 U277/net11 n252 U277/XI16-net11 VDD pmos W=0.205u L=0.04u
M546 U277/XI16-net11 n321 VDD VDD pmos W=0.205u L=0.04u
M547 N100 n321 VSS VSS nmos W=0.155u L=0.04u
M548 N100 n252 VSS VSS nmos W=0.155u L=0.04u
M549 N100 n306 U277/XI12-net17 VSS nmos W=0.155u L=0.04u
M550 U277/XI12-net17 State_2 VSS VSS nmos W=0.155u L=0.04u
M551 U278/net29 n188 VSS VSS nmos W=0.155u L=0.04u
M552 n321 Prog_0 U278/net29 VSS nmos W=0.155u L=0.04u
M553 n321 N67 U278/net23 VSS nmos W=0.155u L=0.04u
M554 U278/net23 n322 VSS VSS nmos W=0.155u L=0.04u
M555 U278/net20 n322 n321 VDD pmos W=0.205u L=0.04u
M556 U278/net20 N67 n321 VDD pmos W=0.205u L=0.04u
M557 VDD Prog_0 U278/net20 VDD pmos W=0.205u L=0.04u
M558 VDD n188 U278/net20 VDD pmos W=0.205u L=0.04u
M559 N67 U279/net6 VSS VSS nmos W=0.155u L=0.04u
M560 U279/X_u2-net6 n188 VSS VSS nmos W=0.155u L=0.04u
M561 U279/net6 n323 U279/X_u2-net6 VSS nmos W=0.155u L=0.04u
M562 N67 U279/net6 VDD VDD pmos W=0.205u L=0.04u
M563 U279/net6 n188 VDD VDD pmos W=0.205u L=0.04u
M564 U279/net6 n323 VDD VDD pmos W=0.205u L=0.04u
M565 U280/XU1-net6 n267 VSS VSS nmos W=0.155u L=0.04u
M566 n252 n324 U280/XU1-net6 VSS nmos W=0.155u L=0.04u
M567 n252 n267 VDD VDD pmos W=0.155u L=0.04u
M568 n252 n324 VDD VDD pmos W=0.155u L=0.04u
M569 n267 n214 VSS VSS nmos W=0.135u L=0.04u
M570 n267 n214 VDD VDD pmos W=0.205u L=0.04u
M571 U282/net36 n202 U282/net24 VSS nmos W=0.155u L=0.04u
M572 U282/net24 n243 VSS VSS nmos W=0.155u L=0.04u
M573 n324 State_2 U282/net36 VSS nmos W=0.155u L=0.04u
M574 n324 n325 U282/net36 VSS nmos W=0.155u L=0.04u
M575 n324 n325 U282/net35 VDD pmos W=0.205u L=0.04u
M576 U282/net35 State_2 VDD VDD pmos W=0.205u L=0.04u
M577 n324 n243 VDD VDD pmos W=0.205u L=0.04u
M578 n324 n202 VDD VDD pmos W=0.205u L=0.04u