* ============================================================
* Gate type    : 2inputAnd
* Chosen from  : AND2XL  [asdf.cdl]
* Total instances deduplicated: 30
* Other variants: AND2X1 (asdf.cdl), AND2X2 (asdf.cdl), AND2X4 (asdf.cdl), AND2X6 (asdf.cdl), AND2X8 (asdf.cdl)
* ============================================================
.SUBCKT AND2XL A B VDD VSS Y
*.PININFO A:I B:I VDD:I VSS:I Y:O
Mmn2 Y net57 VSS VSS g45n1svt m=1 l=45n w=145n
Mmn0 net73 A VSS VSS g45n1svt m=1 l=45n w=145n
Mmn1 net57 B net73 VSS g45n1svt m=1 l=45n w=145n
Mmp1 net57 B VDD VDD g45p1svt m=1 l=45n w=215n
Mmp0 net57 A VDD VDD g45p1svt m=1 l=45n w=215n
Mmp2 Y net57 VDD VDD g45p1svt m=1 l=45n w=215n
.ENDS

* ============================================================
* Gate type    : 2inputNand
* Chosen from  : NAND2XL  [asdf.cdl]
* Total instances deduplicated: 31
* Other variants: NAND2X1 (asdf.cdl), NAND2X2 (asdf.cdl), NAND2X4 (asdf.cdl), NAND2X6 (asdf.cdl), NAND2X8 (asdf.cdl)
* ============================================================
.SUBCKT NAND2XL A B VDD VSS Y
*.PININFO A:I B:I VDD:I VSS:I Y:O
Mmn1 Y B n0 VSS g45n1svt m=1 l=45n w=145n
Mmn0 n0 A VSS VSS g45n1svt m=1 l=45n w=145n
Mmp1 Y B VDD VDD g45p1svt m=1 l=45n w=215n
Mmp0 Y A VDD VDD g45p1svt m=1 l=45n w=215n
.ENDS

* ============================================================
* Gate type    : 2inputNor
* Chosen from  : NOR2XL  [asdf.cdl]
* Total instances deduplicated: 35
* Other variants: NOR2X1 (asdf.cdl), NOR2X2 (asdf.cdl), NOR2X4 (asdf.cdl), NOR2X6 (asdf.cdl), NOR2X8 (asdf.cdl)
* ============================================================
.SUBCKT NOR2XL A B VDD VSS Y
*.PININFO A:I B:I VDD:I VSS:I Y:O
Mmn1 Y B VSS VSS g45n1svt m=1 l=45n w=145n
Mmn0 Y A VSS VSS g45n1svt m=1 l=45n w=145n
Mmp1 Y B net41 VDD g45p1svt m=1 l=45n w=215n
Mmp0 nets41 A VDD VDD g45p1svt m=1 l=45n w=215n
.ENDS

* ============================================================
* Gate type    : 2inputOr
* Chosen from  : OR2XL  [asdf.cdl]
* Total instances deduplicated: 24
* Other variants: OR2X1 (asdf.cdl), OR2X2 (asdf.cdl), OR2X4 (asdf.cdl), OR2X6 (asdf.cdl), OR2X8 (asdf.cdl)
* ============================================================
.SUBCKT OR2XL A B VDD VSS Y
*.PININFO A:I B:I VDD:I VSS:I Y:O
Mmn2 Y n0 VSS VSS g45n1svt m=1 l=45n w=145n
Mmn0 n0 A VSS VSS g45n1svt m=1 l=45n w=145n
Mmn1 n0 B VSS VSS g45n1svt m=1 l=45n w=145n
Mmp1 n0 B n1 VDD g45p1svt m=1 l=45n w=215n
Mmp2 Y n0 VDD VDD g45p1svt m=1 l=45n w=215n
Mmp0 n1 A VDD VDD g45p1svt m=1 l=45n w=215n
.ENDS

* ============================================================
* Gate type    : 2inputXnor
* Chosen from  : XNOR2XL  [asdf.cdl]
* Total instances deduplicated: 19
* Other variants: XNOR2X1 (asdf.cdl), XNOR2X2 (asdf.cdl), XNOR2X4 (asdf.cdl), XNR2D0BWP (libc1908.sp), XNR2D0BWP (libc2670.sp)
* ============================================================
.SUBCKT XNOR2XL A B VDD VSS Y
*.PININFO A:I B:I VDD:I VSS:I Y:O
Mmn1 n2 B VSS VSS g45n1svt m=1 l=45n w=145n
Mmn2 net145 n1 VSS VSS g45n1svt m=1 l=45n w=145n
Mmn3 n0 n2 net145 VSS g45n1svt m=1 l=45n w=145n
Mmn5 Y n0 VSS VSS g45n1svt m=1 l=45n w=145n
Mmn0 n1 A VSS VSS g45n1svt m=1 l=45n w=145n
Mmn4 n0 B n1 VSS g45n1svt m=1 l=45n w=145n
Mmp0 n1 A VDD VDD g45p1svt m=1 l=45n w=215n
Mmp4 n1 n2 n0 VDD g45p1svt m=1 l=45n w=215n
Mmp2 net112 n1 VDD VDD g45p1svt m=1 l=45n w=215n
Mmp1 n2 B VDD VDD g45p1svt m=1 l=45n w=215n
Mmp3 n0 B net112 VDD g45p1svt m=1 l=45n w=215n
Mmp5 Y n0 VDD VDD g45p1svt m=1 l=45n w=215n
.ENDS

* ============================================================
* Gate type    : 2inputXor
* Chosen from  : XOR2XL  [asdf.cdl]
* Total instances deduplicated: 22
* Other variants: XOR2X1 (asdf.cdl), XOR2X2 (asdf.cdl), XOR2X4 (asdf.cdl), CKXOR2D0BWP (libc1355.sp), CKXOR2D0BWP (libc1908.sp)
* ============================================================
.SUBCKT XOR2XL A B VDD VSS Y
*.PININFO A:I B:I VDD:I VSS:I Y:O
Mmn1 n2 B VSS VSS g45n1svt m=1 l=45n w=145n
Mmn0 n1 A VSS VSS g45n1svt m=1 l=45n w=145n
Mmn5 Y n0 VSS VSS g45n1svt m=1 l=45n w=145n
Mmn3 n0 B net131 VSS g45n1svt m=1 l=45n w=145n
Mmn4 n0 n2 n1 VSS g45n1svt m=1 l=45n w=145n
Mmn2 net131 n1 VSS VSS g45n1svt m=1 l=45n w=145n
Mmp3 n0 n2 net130 VDD g45p1svt m=1 l=45n w=215n
Mmp1 n2 B VDD VDD g45p1svt m=1 l=45n w=215n
Mmp4 n1 B n0 VDD g45p1svt m=1 l=45n w=215n
Mmp0 n1 A VDD VDD g45p1svt m=1 l=45n w=215n
Mmp5 Y n0 VDD VDD g45p1svt m=1 l=45n w=215n
Mmp2 net130 n1 VDD VDD g45p1svt m=1 l=45n w=215n
.ENDS

* ============================================================
* Gate type    : 3inputAnd
* Chosen from  : AND3XL  [asdf.cdl]
* Total instances deduplicated: 22
* Other variants: AND3X1 (asdf.cdl), AND3X2 (asdf.cdl), AND3X4 (asdf.cdl), AND3X6 (asdf.cdl), AND3X8 (asdf.cdl)
* ============================================================
.SUBCKT AND3XL A B C VDD VSS Y
*.PININFO A:I B:I C:I VDD:I VSS:I Y:O
Mmn3 Y net87 VSS VSS g45n1svt m=1 l=45n w=145n
Mmn1 net107 B net103 VSS g45n1svt m=1 l=45n w=145n
Mmn0 net103 A VSS VSS g45n1svt m=1 l=45n w=145n
Mmn2 net87 C net107 VSS g45n1svt m=1 l=45n w=145n
Mmp1 net87 B VDD VDD g45p1svt m=1 l=45n w=215n
Mmp2 net87 C VDD VDD g45p1svt m=1 l=45n w=215n
Mmp0 net87 A VDD VDD g45p1svt m=1 l=45n w=215n
Mmp3 Y net87 VDD VDD g45p1svt m=1 l=45n w=215n
.ENDS

* ============================================================
* Gate type    : 3inputNand
* Chosen from  : NAND3XL  [asdf.cdl]
* Total instances deduplicated: 29
* Other variants: NAND3X1 (asdf.cdl), NAND3X2 (asdf.cdl), NAND3X4 (asdf.cdl), NAND3X6 (asdf.cdl), NAND3X8 (asdf.cdl)
* ============================================================
.SUBCKT NAND3XL A B C VDD VSS Y
*.PININFO A:I B:I C:I VDD:I VSS:I Y:O
Mmn1 n0 B n1 VSS g45n1svt m=1 l=45n w=145n
Mmn2 Y C n0 VSS g45n1svt m=1 l=45n w=145n
Mmn0 n1 A VSS VSS g45n1svt m=1 l=45n w=145n
Mmp0 Y A VDD VDD g45p1svt m=1 l=45n w=215n
Mmp1 Y B VDD VDD g45p1svt m=1 l=45n w=215n
Mmp2 Y C VDD VDD g45p1svt m=1 l=45n w=215n
.ENDS

* ============================================================
* Gate type    : 3inputNor
* Chosen from  : NOR3XL  [asdf.cdl]
* Total instances deduplicated: 27
* Other variants: NOR3X1 (asdf.cdl), NOR3X2 (asdf.cdl), NOR3X4 (asdf.cdl), NOR3X6 (asdf.cdl), NOR3X8 (asdf.cdl)
* ============================================================
.SUBCKT NOR3XL A B C VDD VSS Y
*.PININFO A:I B:I C:I VDD:I VSS:I Y:O
Mmn0 Y A VSS VSS g45n1svt m=1 l=45n w=145n
Mmn1 Y B VSS VSS g45n1svt m=1 l=45n w=145n
Mmn2 Y C VSS VSS g45n1svt m=1 l=45n w=145n
Mmp1 n1 B n0 VDD g45p1svt m=1 l=45n w=215n
Mmp2 Y C n1 VDD g45p1svt m=1 l=45n w=215n
Mmp0 n0 A VDD VDD g45p1svt m=1 l=45n w=215n
.ENDS

* ============================================================
* Gate type    : 3inputOr
* Chosen from  : OR3XL  [asdf.cdl]
* Total instances deduplicated: 10
* Other variants: OR3X1 (asdf.cdl), OR3X2 (asdf.cdl), OR3X4 (asdf.cdl), OR3X6 (asdf.cdl), OR3X8 (asdf.cdl)
* ============================================================
.SUBCKT OR3XL A B C VDD VSS Y
*.PININFO A:I B:I C:I VDD:I VSS:I Y:O
Mmn3 Y n0 VSS VSS g45n1svt m=1 l=45n w=145n
Mmn0 n0 A VSS VSS g45n1svt m=1 l=45n w=145n
Mmn1 n0 B VSS VSS g45n1svt m=1 l=45n w=145n
Mmn2 n0 C VSS VSS g45n1svt m=1 l=45n w=145n
Mmp3 Y n0 VDD VDD g45p1svt m=1 l=45n w=215n
Mmp1 n2 B n1 VDD g45p1svt m=1 l=45n w=215n
Mmp2 n0 C n2 VDD g45p1svt m=1 l=45n w=215n
Mmp0 n1 A VDD VDD g45p1svt m=1 l=45n w=215n
.ENDS

* ============================================================
* Gate type    : 3inputXnor
* Chosen from  : XNOR3XL  [asdf.cdl]
* Total instances deduplicated: 7
* Other variants: XNOR3X1 (asdf.cdl), XNR3D0BWP (libc1908.sp), XNR3D0BWP (libc3540.sp), XNR3D0BWP (libc5315.sp), XNR3D0BWP (libs13207.sp)
* ============================================================
.SUBCKT XNOR3XL A B C VDD VSS Y
*.PININFO A:I B:I C:I VDD:I VSS:I Y:O
Mmn8 Y n11 VSS VSS g45n1svt m=1 l=45n w=205n
Mmn10 n12 n61 n8 VSS g45n1svt m=1 l=45n w=205n
Mmn2 n9 n61 n62 VSS g45n1svt m=1 l=45n w=190n
Mmn1 n9 B n8 VSS g45n1svt m=1 l=45n w=190n
Mmn9 n8 n62 VSS VSS g45n1svt m=1 l=45n w=190n
Mmn11 n12 B n62 VSS g45n1svt m=1 l=45n w=190n
Mmn6 n11 C n9 VSS g45n1svt m=1 l=45n w=190n
Mmn5 n11 n60 n12 VSS g45n1svt m=1 l=45n w=190n
Mmn7 n60 C VSS VSS g45n1svt m=1 l=45n w=190n
Mmn4 n61 B VSS VSS g45n1svt m=1 l=45n w=190n
Mmn3 n62 A VSS VSS g45n1svt m=1 l=45n w=205n
Mmp8 Y n11 VDD VDD g45p1svt m=1 l=45n w=205n
Mmp3 n62 A VDD VDD g45p1svt m=1 l=45n w=310n
Mmp6 n9 n60 n11 VDD g45p1svt m=1 l=45n w=310n
Mmp11 n62 n61 n12 VDD g45p1svt m=1 l=45n w=310n
Mmp2 n62 B n9 VDD g45p1svt m=1 l=45n w=310n
Mmp5 n12 C n11 VDD g45p1svt m=1 l=45n w=310n
Mmp1 n8 n61 n9 VDD g45p1svt m=1 l=45n w=310n
Mmp10 n8 B n12 VDD g45p1svt m=1 l=45n w=310n
Mmp4 n61 B VDD VDD g45p1svt m=1 l=45n w=310n
Mmp9 n8 n62 VDD VDD g45p1svt m=1 l=45n w=310n
Mmp7 n60 C VDD VDD g45p1svt m=1 l=45n w=310n
.ENDS

* ============================================================
* Gate type    : 3inputXor
* Chosen from  : XOR3XL  [asdf.cdl]
* Total instances deduplicated: 7
* Other variants: XOR3X1 (asdf.cdl), XOR3D0BWP (libc1908.sp), XOR3D0BWP (libc2670.sp), XOR3D0BWP (libc3540.sp), XOR3D0BWP (libc5315.sp)
* ============================================================
.SUBCKT XOR3XL A B C VDD VSS Y
*.PININFO A:I B:I C:I VDD:I VSS:I Y:O
Mmn3 n56 n60 n50 VSS g45n1svt m=1 l=45n w=190n
Mmn10 n62 A VSS VSS g45n1svt m=1 l=45n w=190n
Mmn4 n44 C n50 VSS g45n1svt m=1 l=45n w=190n
Mmn8 n60 C VSS VSS g45n1svt m=1 l=45n w=190n
Mmn9 n61 B VSS VSS g45n1svt m=1 l=45n w=190n
Mmn6 n56 B n11 VSS g45n1svt m=1 l=45n w=190n
Mmn1 n62 B n44 VSS g45n1svt m=1 l=45n w=190n
Mmn2 n11 n61 n44 VSS g45n1svt m=1 l=45n w=190n
Mmn0 n11 n62 VSS VSS g45n1svt m=1 l=45n w=190n
Mmn5 n62 n61 n56 VSS g45n1svt m=1 l=45n w=190n
Mmn7 Y n50 VSS VSS g45n1svt m=1 l=45n w=190n
Mmp10 n62 A VDD VDD g45p1svt m=1 l=45n w=310n
Mmp1 n44 n61 n62 VDD g45p1svt m=1 l=45n w=310n
Mmp7 Y n50 VDD VDD g45p1svt m=1 l=45n w=205n
Mmp2 n44 B n11 VDD g45p1svt m=1 l=45n w=310n
Mmp9 n61 B VDD VDD g45p1svt m=1 l=45n w=310n
Mmp3 n50 C n56 VDD g45p1svt m=1 l=45n w=310n
Mmp8 n60 C VDD VDD g45p1svt m=1 l=45n w=310n
Mmp4 n50 n60 n44 VDD g45p1svt m=1 l=45n w=310n
Mmp0 n11 n62 VDD VDD g45p1svt m=1 l=45n w=310n
Mmp6 n11 n61 n56 VDD g45p1svt m=1 l=45n w=310n
Mmp5 n56 B n62 VDD g45p1svt m=1 l=45n w=310n
.ENDS

* ============================================================
* Gate type    : 4inputAnd
* Chosen from  : AND4XL  [asdf.cdl]
* Total instances deduplicated: 20
* Other variants: AND4X1 (asdf.cdl), AND4X2 (asdf.cdl), AND4X4 (asdf.cdl), AND4X6 (asdf.cdl), AND4X8 (asdf.cdl)
* ============================================================
.SUBCKT AND4XL A B C D VDD VSS Y
*.PININFO A:I B:I C:I D:I VDD:I VSS:I Y:O
Mmn3 net100 D net136 VSS g45n1svt m=1 l=45n w=145n
Mmn2 net136 C net128 VSS g45n1svt m=1 l=45n w=145n
Mmn4 Y net100 VSS VSS g45n1svt m=1 l=45n w=145n
Mmn1 net128 B net124 VSS g45n1svt m=1 l=45n w=145n
Mmn0 net124 A VSS VSS g45n1svt m=1 l=45n w=145n
Mmp3 net100 D VDD VDD g45p1svt m=1 l=45n w=215n
Mmp2 net100 C VDD VDD g45p1svt m=1 l=45n w=215n
Mmp1 net100 B VDD VDD g45p1svt m=1 l=45n w=215n
Mmp4 Y net100 VDD VDD g45p1svt m=1 l=45n w=215n
Mmp0 net100 A VDD VDD g45p1svt m=1 l=45n w=215n
.ENDS

* ============================================================
* Gate type    : 4inputNand
* Chosen from  : NAND4XL  [asdf.cdl]
* Total instances deduplicated: 21
* Other variants: NAND4X1 (asdf.cdl), NAND4X2 (asdf.cdl), NAND4X4 (asdf.cdl), NAND4X6 (asdf.cdl), NAND4X8 (asdf.cdl)
* ============================================================
.SUBCKT NAND4XL A B C D VDD VSS Y
*.PININFO A:I B:I C:I D:I VDD:I VSS:I Y:O
Mmn1 n1 B n2 VSS g45n1svt m=1 l=45n w=145n
Mmn3 Y D n0 VSS g45n1svt m=1 l=45n w=145n
Mmn2 n0 C n1 VSS g45n1svt m=1 l=45n w=145n
Mmn0 n2 A VSS VSS g45n1svt m=1 l=45n w=145n
Mmp3 Y D VDD VDD g45p1svt m=1 l=45n w=215n
Mmp2 Y C VDD VDD g45p1svt m=1 l=45n w=215n
Mmp1 Y B VDD VDD g45p1svt m=1 l=45n w=215n
Mmp0 Y A VDD VDD g45p1svt m=1 l=45n w=215n
.ENDS

* ============================================================
* Gate type    : 4inputNor
* Chosen from  : NOR4XL  [asdf.cdl]
* Total instances deduplicated: 25
* Other variants: NOR4X1 (asdf.cdl), NOR4X2 (asdf.cdl), NOR4X4 (asdf.cdl), NOR4X6 (asdf.cdl), NOR4X8 (asdf.cdl)
* ============================================================
.SUBCKT NOR4XL A B C D VDD VSS Y
*.PININFO A:I B:I C:I D:I VDD:I VSS:I Y:O
Mmn2 Y C VSS VSS g45n1svt m=1 l=45n w=145n
Mmn3 Y D VSS VSS g45n1svt m=1 l=45n w=145n
Mmn0 Y A VSS VSS g45n1svt m=1 l=45n w=145n
Mmn1 Y B VSS VSS g45n1svt m=1 l=45n w=145n
Mmp1 n1 B n0 VDD g45p1svt m=1 l=45n w=215n
Mmp3 Y D n2 VDD g45p1svt m=1 l=45n w=215n
Mmp2 n2 C n1 VDD g45p1svt m=1 l=45n w=215n
Mmp0 n0 A VDD VDD g45p1svt m=1 l=45n w=215n
.ENDS

* ============================================================
* Gate type    : 4inputOr
* Chosen from  : OR4XL  [asdf.cdl]
* Total instances deduplicated: 14
* Other variants: OR4X1 (asdf.cdl), OR4X2 (asdf.cdl), OR4X4 (asdf.cdl), OR4X6 (asdf.cdl), OR4X8 (asdf.cdl)
* ============================================================
.SUBCKT OR4XL A B C D VDD VSS Y
*.PININFO A:I B:I C:I D:I VDD:I VSS:I Y:O
Mmn4 Y n0 VSS VSS g45n1svt m=1 l=45n w=145n
Mmn3 n0 D VSS VSS g45n1svt m=1 l=45n w=145n
Mmn0 n0 A VSS VSS g45n1svt m=1 l=45n w=145n
Mmn2 n0 C VSS VSS g45n1svt m=1 l=45n w=145n
Mmn1 n0 B VSS VSS g45n1svt m=1 l=45n w=145n
Mmp4 Y n0 VDD VDD g45p1svt m=1 l=45n w=215n
Mmp0 n1 A VDD VDD g45p1svt m=1 l=45n w=215n
Mmp3 n0 D n3 VDD g45p1svt m=1 l=45n w=215n
Mmp1 n2 B n1 VDD g45p1svt m=1 l=45n w=215n
Mmp2 n3 C n2 VDD g45p1svt m=1 l=45n w=215n
.ENDS

* ============================================================
* Gate type    : 4inputXnor
* Chosen from  : XNR4D0BWP  [libs38417.sp]
* Total instances deduplicated: 1
* ============================================================
.SUBCKT  XNR4D0BWP A1 A2 A3 A4 ZN VDD VSS 
MI15-M_u3 net28 net20 net64 VSS nmos w=0.155u l=0.04u
MI8-M_u3 net24 net30 net32 VSS nmos w=0.155u l=0.04u
MI17-M_u3 net28 net40 net24 VSS nmos w=0.155u l=0.04u
MI11-M_u3 net20 A4 net108 VSS nmos w=0.155u l=0.04u
MI9-M_u3 net20 net106 net104 VSS nmos w=0.155u l=0.04u
MI21 net24 A1 net046 VSS nmos w=0.155u l=0.04u
MI22 net046 net32 VSS VSS nmos w=0.155u l=0.04u
MI13-M_u2 net106 A4 VSS VSS nmos w=0.155u l=0.04u
MI18-M_u2 net32 A2 VSS VSS nmos w=0.155u l=0.04u
M_u8-M_u2 net30 A1 VSS VSS nmos w=0.155u l=0.04u
MI12-M_u2 net108 net104 VSS VSS nmos w=0.155u l=0.04u
MU20-M_u2 ZN net28 VSS VSS nmos w=0.155u l=0.04u
MI19-M_u2 net104 A3 VSS VSS nmos w=0.155u l=0.04u
MI16-M_u2 net64 net24 VSS VSS nmos w=0.155u l=0.04u
MU14-M_u2 net40 net20 VSS VSS nmos w=0.155u l=0.04u
MI15-M_u2 net28 net40 net64 VDD pmos w=0.205u l=0.04u
MI8-M_u2 net24 A1 net32 VDD pmos w=0.205u l=0.04u
MI17-M_u2 net28 net20 net24 VDD pmos w=0.205u l=0.04u
MI11-M_u2 net20 net106 net108 VDD pmos w=0.205u l=0.04u
MI9-M_u2 net20 A4 net104 VDD pmos w=0.205u l=0.04u
MI13-M_u3 net106 A4 VDD VDD pmos w=0.205u l=0.04u
MI18-M_u3 net32 A2 VDD VDD pmos w=0.205u l=0.04u
M_u8-M_u3 net30 A1 VDD VDD pmos w=0.205u l=0.04u
MI12-M_u3 net108 net104 VDD VDD pmos w=0.205u l=0.04u
MU20-M_u3 ZN net28 VDD VDD pmos w=0.205u l=0.04u
MI19-M_u3 net104 A3 VDD VDD pmos w=0.205u l=0.04u
MI16-M_u3 net64 net24 VDD VDD pmos w=0.205u l=0.04u
MU14-M_u3 net40 net20 VDD VDD pmos w=0.205u l=0.04u
MI20 net24 net30 net045 VDD pmos w=0.205u l=0.04u
M_u2 net045 net32 VDD VDD pmos w=0.205u l=0.04u
.ENDS 

* ============================================================
* Gate type    : 4inputXor
* Chosen from  : XOR4D0BWP  [libc1355.sp]
* Total instances deduplicated: 10
* Other variants: XOR4D0BWP (libc1908.sp), XOR4D0BWP (libc2670.sp), XOR4D0BWP (libc3540.sp), XOR4D0BWP (libc499.sp), XOR4D0BWP (libc5315.sp)
* ============================================================
.SUBCKT XOR4D0BWP A1 A2 A3 A4 Z VDD VSS 
MI15-M_u3 net28 net20 net64 VSS nmos w=0.155u l=0.04u
MI8-M_u3 net24 net30 net32 VSS nmos w=0.155u l=0.04u
MI17-M_u3 net28 net40 net24 VSS nmos w=0.155u l=0.04u
MI11-M_u3 net40 A4 net108 VSS nmos w=0.155u l=0.04u
MI9-M_u3 net40 net106 net104 VSS nmos w=0.155u l=0.04u
MI21 net24 A1 net050 VSS nmos w=0.155u l=0.04u
MI22 net050 net32 VSS VSS nmos w=0.155u l=0.04u
MI19-M_u2 net20 net40 VSS VSS nmos w=0.155u l=0.04u
MI13-M_u2 net106 A4 VSS VSS nmos w=0.155u l=0.04u
MI14-M_u2 net104 A3 VSS VSS nmos w=0.155u l=0.04u
M_u8-M_u2 net30 A1 VSS VSS nmos w=0.155u l=0.04u
MI12-M_u2 net108 net104 VSS VSS nmos w=0.155u l=0.04u
MU20-M_u2 Z net28 VSS VSS nmos w=0.155u l=0.04u
MI1-M_u2 net32 A2 VSS VSS nmos w=0.155u l=0.04u
MI16-M_u2 net64 net24 VSS VSS nmos w=0.2u l=0.04u
MI15-M_u2 net28 net40 net64 VDD pmos w=0.205u l=0.04u
MI8-M_u2 net24 A1 net32 VDD pmos w=0.205u l=0.04u
MI17-M_u2 net28 net20 net24 VDD pmos w=0.205u l=0.04u
MI11-M_u2 net40 net106 net108 VDD pmos w=0.205u l=0.04u
MI9-M_u2 net40 A4 net104 VDD pmos w=0.205u l=0.04u
MI19-M_u3 net20 net40 VDD VDD pmos w=0.205u l=0.04u
MI13-M_u3 net106 A4 VDD VDD pmos w=0.205u l=0.04u
MI14-M_u3 net104 A3 VDD VDD pmos w=0.205u l=0.04u
M_u8-M_u3 net30 A1 VDD VDD pmos w=0.205u l=0.04u
MI12-M_u3 net108 net104 VDD VDD pmos w=0.205u l=0.04u
MU20-M_u3 Z net28 VDD VDD pmos w=0.205u l=0.04u
MI1-M_u3 net32 A2 VDD VDD pmos w=0.205u l=0.04u
MI16-M_u3 net64 net24 VDD VDD pmos w=0.28u l=0.04u
MI20 net24 net30 net045 VDD pmos w=0.205u l=0.04u
M_u2 net045 net32 VDD VDD pmos w=0.205u l=0.04u
.ENDS

* ============================================================
* Gate type    : AO21
* Chosen from  : AO21XL  [asdf.cdl]
* Total instances deduplicated: 14
* Other variants: AO21X1 (asdf.cdl), AO21X2 (asdf.cdl), AO21X4 (asdf.cdl), AO21D0BWP (libc5315.sp), AO21D0BWP (libc880.sp)
* ============================================================
.SUBCKT AO21XL A0 A1 B0 VDD VSS Y
*.PININFO A0:I A1:I B0:I VDD:I VSS:I Y:O
Mmn1 n0 A1 n1 VSS g45n1svt m=1 l=45n w=145n
Mmn0 n1 A0 VSS VSS g45n1svt m=1 l=45n w=145n
Mmn3 Y n0 VSS VSS g45n1svt m=1 l=45n w=145n
Mmn2 n0 B0 VSS VSS g45n1svt m=1 l=45n w=145n
Mmp1 n2 A1 VDD VDD g45p1svt m=1 l=45n w=215n
Mmp0 n2 A0 VDD VDD g45p1svt m=1 l=45n w=215n
Mmp3 Y n0 VDD VDD g45p1svt m=1 l=45n w=215n
Mmp2 n0 B0 n2 VDD g45p1svt m=1 l=45n w=215n
.ENDS

* ============================================================
* Gate type    : AO211
* Chosen from  : AO211D0BWP  [libc5315.sp]
* Total instances deduplicated: 5
* Other variants: AO211D0BWP (libs1196.sp), AO211D0BWP (libs13207.sp), AO211D0BWP (libs15850.sp), AO211D0BWP (libs38417.sp)
* ============================================================
.SUBCKT AO211D0BWP A1 A2 B C Z VDD VSS 
MI8-M_u3 Z net27 VDD VDD pmos w=0.205u l=0.04u
M_u3 net11 A1 net27 VDD pmos w=0.205u l=0.04u
MI0 net11 A2 net27 VDD pmos w=0.205u l=0.04u
MI16-MI12 net11 B XI16-net11 VDD pmos w=0.205u l=0.04u
MI16-MI13 XI16-net11 C VDD VDD pmos w=0.205u l=0.04u
M_u12 net27 C VSS VSS nmos w=0.155u l=0.04u
M_u13 net27 B VSS VSS nmos w=0.155u l=0.04u
MI8-M_u2 Z net27 VSS VSS nmos w=0.155u l=0.04u
MI12-M_u10 net27 A1 XI12-net17 VSS nmos w=0.155u l=0.04u
MI12-M_u11 XI12-net17 A2 VSS VSS nmos w=0.155u l=0.04u
.ENDS

* ============================================================
* Gate type    : AO22
* Chosen from  : AO22XL  [asdf.cdl]
* Total instances deduplicated: 8
* Other variants: AO22X1 (asdf.cdl), AO22X2 (asdf.cdl), AO22X4 (asdf.cdl), AO22D0BWP (libc2670.sp), AO22D0BWP (libs13207.sp)
* ============================================================
.SUBCKT AO22XL A0 A1 B0 B1 VDD VSS Y
*.PININFO A0:I A1:I B0:I B1:I VDD:I VSS:I Y:O
Mmn3 n0 B1 n2 VSS g45n1svt m=1 l=45n w=145n
Mmn2 n2 B0 VSS VSS g45n1svt m=1 l=45n w=145n
Mmn1 n0 A1 n1 VSS g45n1svt m=1 l=45n w=145n
Mmn0 n1 A0 VSS VSS g45n1svt m=1 l=45n w=145n
Mmn4 Y n0 VSS VSS g45n1svt m=1 l=45n w=145n
Mmp3 n0 B1 n3 VDD g45p1svt m=1 l=45n w=215n
Mmp2 n0 B0 n3 VDD g45p1svt m=1 l=45n w=215n
Mmp1 n3 A1 VDD VDD g45p1svt m=1 l=45n w=215n
Mmp0 n3 A0 VDD VDD g45p1svt m=1 l=45n w=215n
Mmp4 Y n0 VDD VDD g45p1svt m=1 l=45n w=215n
.ENDS

* ============================================================
* Gate type    : AO221
* Chosen from  : AO221D0BWP  [libc3540.sp]
* Total instances deduplicated: 2
* Other variants: AO221D0BWP (libs13207.sp)
* ============================================================
.SUBCKT AO221D0BWP A1 A2 B1 B2 C Z VDD VSS 
MI8-M_u3 Z net31 VDD VDD pmos w=0.205u l=0.04u
MI10 net30 A1 net31 VDD pmos w=0.205u l=0.04u
MI9 net30 A2 net31 VDD pmos w=0.205u l=0.04u
MU22 VDD C net36 VDD pmos w=0.205u l=0.04u
MI6 net36 B2 net30 VDD pmos w=0.205u l=0.04u
MI7 net36 B1 net30 VDD pmos w=0.205u l=0.04u
MU20 net31 C VSS VSS nmos w=0.155u l=0.04u
MI8-M_u2 Z net31 VSS VSS nmos w=0.155u l=0.04u
MI17-M_u10 net31 B1 XI17-net17 VSS nmos w=0.155u l=0.04u
MI17-M_u11 XI17-net17 B2 VSS VSS nmos w=0.155u l=0.04u
MI1-M_u10 net31 A1 XI1-net17 VSS nmos w=0.155u l=0.04u
MI1-M_u11 XI1-net17 A2 VSS VSS nmos w=0.155u l=0.04u
.ENDS

* ============================================================
* Gate type    : AO222
* Chosen from  : AO222D0BWP  [libc3540.sp]
* Total instances deduplicated: 4
* Other variants: AO222D0BWP (libs13207.sp), AO222D0BWP (libs15850.sp), AO222D0BWP (libs38417.sp)
* ============================================================
.SUBCKT AO222D0BWP A1 A2 B1 B2 C1 C2 Z VDD VSS 
MI15-M_u3 Z net39 VDD VDD pmos w=0.205u l=0.04u
MI16 VDD C1 net22 VDD pmos w=0.205u l=0.04u
MU27 VDD C2 net22 VDD pmos w=0.205u l=0.04u
MI20 net16 A1 net39 VDD pmos w=0.205u l=0.04u
MI19 net16 A2 net39 VDD pmos w=0.205u l=0.04u
MI18 net22 B1 net16 VDD pmos w=0.205u l=0.04u
MI17 net22 B2 net16 VDD pmos w=0.205u l=0.04u
MI15-M_u2 Z net39 VSS VSS nmos w=0.155u l=0.04u
MI22-M_u10 net39 C1 XI22-net17 VSS nmos w=0.155u l=0.04u
MI22-M_u11 XI22-net17 C2 VSS VSS nmos w=0.155u l=0.04u
MI6-M_u10 net39 A1 XI6-net17 VSS nmos w=0.155u l=0.04u
MI6-M_u11 XI6-net17 A2 VSS VSS nmos w=0.155u l=0.04u
MI21-M_u10 net39 B1 XI21-net17 VSS nmos w=0.155u l=0.04u
MI21-M_u11 XI21-net17 B2 VSS VSS nmos w=0.155u l=0.04u
.ENDS

* ============================================================
* Gate type    : AO31
* Chosen from  : AO31D0BWP  [libs1423.sp]
* Total instances deduplicated: 5
* Other variants: AO31D0BWP (libs1488.sp), AO31D0BWP (libs15850.sp), AO31D0BWP (libs38417.sp), AO31D0BWP (libs526.sp)
* ============================================================
.SUBCKT AO31D0BWP A1 A2 A3 B Z VDD VSS 
MI8-M_u3 Z net26 VDD VDD pmos w=0.205u l=0.04u
MI3 net26 A1 net19 VDD pmos w=0.205u l=0.04u
MI2 net26 A2 net19 VDD pmos w=0.205u l=0.04u
MI1 net26 A3 net19 VDD pmos w=0.205u l=0.04u
MU20 net19 B VDD VDD pmos w=0.205u l=0.04u
MU14 net26 B VSS VSS nmos w=0.155u l=0.04u
MI8-M_u2 Z net26 VSS VSS nmos w=0.155u l=0.04u
MI20-MI12 XI20-net13 A3 VSS VSS nmos w=0.155u l=0.04u
MI20-M_u10 net26 A1 XI20-net17 VSS nmos w=0.155u l=0.04u
MI20-M_u11 XI20-net17 A2 XI20-net13 VSS nmos w=0.155u l=0.04u
.ENDS

* ============================================================
* Gate type    : AO32
* Chosen from  : AO32D0BWP  [libs1423.sp]
* Total instances deduplicated: 3
* Other variants: AO32D0BWP (libs1488.sp), AO32D0BWP (libs38417.sp)
* ============================================================
.SUBCKT AO32D0BWP A1 A2 A3 B1 B2 Z VDD VSS 
MI8-M_u3 Z net27 VDD VDD pmos w=0.205u l=0.04u
MI4 net27 A1 net23 VDD pmos w=0.205u l=0.04u
MI2 net27 A3 net23 VDD pmos w=0.205u l=0.04u
MI3 net27 A2 net23 VDD pmos w=0.205u l=0.04u
MU20 net23 B1 VDD VDD pmos w=0.205u l=0.04u
MI1 net23 B2 VDD VDD pmos w=0.205u l=0.04u
MI8-M_u2 Z net27 VSS VSS nmos w=0.155u l=0.04u
MI20-MI12 XI20-net13 A3 VSS VSS nmos w=0.155u l=0.04u
MI20-M_u10 net27 A1 XI20-net17 VSS nmos w=0.155u l=0.04u
MI20-M_u11 XI20-net17 A2 XI20-net13 VSS nmos w=0.155u l=0.04u
MI17-M_u10 net27 B1 XI17-net17 VSS nmos w=0.155u l=0.04u
MI17-M_u11 XI17-net17 B2 VSS VSS nmos w=0.155u l=0.04u
.ENDS

* ============================================================
* Gate type    : AO33
* Chosen from  : AO33D0BWP  [libs13207.sp]
* Total instances deduplicated: 1
* ============================================================
.SUBCKT AO33D0BWP A1 A2 A3 B1 B2 B3 Z VDD VSS 
MI8-M_u3 Z net30 VDD VDD pmos w=0.205u l=0.04u
MI12 net40 A2 net30 VDD pmos w=0.205u l=0.04u
MI13 net40 A1 net30 VDD pmos w=0.205u l=0.04u
M_u16 VDD B3 net40 VDD pmos w=0.205u l=0.04u
MI10 VDD B1 net40 VDD pmos w=0.205u l=0.04u
MI11 net40 A3 net30 VDD pmos w=0.205u l=0.04u
MI9 VDD B2 net40 VDD pmos w=0.205u l=0.04u
MI8-M_u2 Z net30 VSS VSS nmos w=0.155u l=0.04u
MI14-MI12 XI14-net13 A3 VSS VSS nmos w=0.155u l=0.04u
MI14-M_u10 net30 A1 XI14-net17 VSS nmos w=0.155u l=0.04u
MI14-M_u11 XI14-net17 A2 XI14-net13 VSS nmos w=0.155u l=0.04u
MI7-MI12 XI7-net13 B3 VSS VSS nmos w=0.155u l=0.04u
MI7-M_u10 net30 B1 XI7-net17 VSS nmos w=0.155u l=0.04u
MI7-M_u11 XI7-net17 B2 XI7-net13 VSS nmos w=0.155u l=0.04u
.ENDS

* ============================================================
* Gate type    : AOI21
* Chosen from  : AOI21XL  [asdf.cdl]
* Total instances deduplicated: 22
* Other variants: AOI21X1 (asdf.cdl), AOI21X2 (asdf.cdl), AOI21X4 (asdf.cdl), AOI21D0BWP (libc1355.sp), AOI21D0BWP (libc1908.sp)
* ============================================================
.SUBCKT AOI21XL A0 A1 B0 VDD VSS Y
*.PININFO A0:I A1:I B0:I VDD:I VSS:I Y:O
Mmn2 Y B0 VSS VSS g45n1svt m=1 l=45n w=145n
Mmn0 net74 A0 VSS VSS g45n1svt m=1 l=45n w=145n
Mmn1 Y A1 net74 VSS g45n1svt m=1 l=45n w=145n
Mmp2 Y B0 net70 VDD g45p1svt m=1 l=45n w=215n
Mmp1 net70 A1 VDD VDD g45p1svt m=1 l=45n w=215n
Mmp0 net70 A0 VDD VDD g45p1svt m=1 l=45n w=215n
.ENDS

* ============================================================
* Gate type    : AOI211
* Chosen from  : AOI211XL  [asdf.cdl]
* Total instances deduplicated: 18
* Other variants: AOI211X1 (asdf.cdl), AOI211X2 (asdf.cdl), AOI211X4 (asdf.cdl), AOI211D0BWP (libc2670.sp), AOI211D0BWP (libc3540.sp)
* ============================================================
.SUBCKT AOI211XL A0 A1 B0 C0 VDD VSS Y
*.PININFO A0:I A1:I B0:I C0:I VDD:I VSS:I Y:O
Mmn2 Y B0 VSS VSS g45n1svt m=1 l=45n w=145n
Mmn3 Y C0 VSS VSS g45n1svt m=1 l=45n w=145n
Mmn1 Y A1 net95 VSS g45n1svt m=1 l=45n w=145n
Mmn0 net95 A0 VSS VSS g45n1svt m=1 l=45n w=145n
Mmp3 Y C0 net82 VDD g45p1svt m=1 l=45n w=215n
Mmp2 net82 B0 net91 VDD g45p1svt m=1 l=45n w=215n
Mmp1 net91 A1 VDD VDD g45p1svt m=1 l=45n w=215n
Mmp0 net91 A0 VDD VDD g45p1svt m=1 l=45n w=215n
.ENDS

* ============================================================
* Gate type    : AOI22
* Chosen from  : AOI22XL  [asdf.cdl]
* Total instances deduplicated: 21
* Other variants: AOI22X1 (asdf.cdl), AOI22X2 (asdf.cdl), AOI22X4 (asdf.cdl), AOI22D0BWP (libc1908.sp), AOI22D0BWP (libc2670.sp)
* ============================================================
.SUBCKT AOI22XL A0 A1 B0 B1 VDD VSS Y
*.PININFO A0:I A1:I B0:I B1:I VDD:I VSS:I Y:O
Mmn3 Y B1 net98 VSS g45n1svt m=1 l=45n w=145n
Mmn0 net106 A0 VSS VSS g45n1svt m=1 l=45n w=145n
Mmn2 net98 B0 VSS VSS g45n1svt m=1 l=45n w=145n
Mmn1 Y A1 net106 VSS g45n1svt m=1 l=45n w=145n
Mmp3 Y B1 net89 VDD g45p1svt m=1 l=45n w=215n
Mmp0 net89 A0 VDD VDD g45p1svt m=1 l=45n w=215n
Mmp1 net89 A1 VDD VDD g45p1svt m=1 l=45n w=215n
Mmp2 Y B0 net89 VDD g45p1svt m=1 l=45n w=215n
.ENDS

* ============================================================
* Gate type    : AOI221
* Chosen from  : AOI221XL  [asdf.cdl]
* Total instances deduplicated: 17
* Other variants: AOI221X1 (asdf.cdl), AOI221X2 (asdf.cdl), AOI221X4 (asdf.cdl), AOI221D0BWP (libc2670.sp), AOI221D0BWP (libc3540.sp)
* ============================================================
.SUBCKT AOI221XL A0 A1 B0 B1 C0 VDD VSS Y
*.PININFO A0:I A1:I B0:I B1:I C0:I VDD:I VSS:I Y:O
Mmn2 net116 B0 VSS VSS g45n1svt m=1 l=45n w=145n
Mmn3 Y B1 net116 VSS g45n1svt m=1 l=45n w=145n
Mmn4 Y C0 VSS VSS g45n1svt m=1 l=45n w=145n
Mmn1 Y A1 net124 VSS g45n1svt m=1 l=45n w=145n
Mmn0 net124 A0 VSS VSS g45n1svt m=1 l=45n w=145n
Mmp3 net104 B1 net107 VDD g45p1svt m=1 l=45n w=215n
Mmp2 net104 B0 net107 VDD g45p1svt m=1 l=45n w=215n
Mmp0 net107 A0 VDD VDD g45p1svt m=1 l=45n w=215n
Mmp1 net107 A1 VDD VDD g45p1svt m=1 l=45n w=215n
Mmp4 Y C0 net104 VDD g45p1svt m=1 l=45n w=215n
.ENDS

* ============================================================
* Gate type    : AOI222
* Chosen from  : AOI222XL  [asdf.cdl]
* Total instances deduplicated: 11
* Other variants: AOI222X1 (asdf.cdl), AOI222X2 (asdf.cdl), AOI222X4 (asdf.cdl), AOI222D0BWP (libc3540.sp), AOI222D0BWP (libc5315.sp)
* ============================================================
.SUBCKT AOI222XL A0 A1 B0 B1 C0 C1 VDD VSS Y
*.PININFO A0:I A1:I B0:I B1:I C0:I C1:I VDD:I VSS:I Y:O
Mmn5 Y C1 net155 VSS g45n1svt m=1 l=45n w=145n
Mmn4 net155 C0 VSS VSS g45n1svt m=1 l=45n w=145n
Mmn2 net147 B0 VSS VSS g45n1svt m=1 l=45n w=145n
Mmn0 net139 A0 VSS VSS g45n1svt m=1 l=45n w=145n
Mmn1 Y A1 net139 VSS g45n1svt m=1 l=45n w=145n
Mmn3 Y B1 net147 VSS g45n1svt m=1 l=45n w=145n
Mmp5 Y C1 net122 VDD g45p1svt m=1 l=45n w=215n
Mmp4 Y C0 net122 VDD g45p1svt m=1 l=45n w=215n
Mmp3 net122 B1 net134 VDD g45p1svt m=1 l=45n w=215n
Mmp2 net122 B0 net134 VDD g45p1svt m=1 l=45n w=215n
Mmp0 net134 A0 VDD VDD g45p1svt m=1 l=45n w=215n
Mmp1 net134 A1 VDD VDD g45p1svt m=1 l=45n w=215n
.ENDS

* ============================================================
* Gate type    : AOI2BB1
* Chosen from  : AOI2BB1XL  [asdf.cdl]
* Total instances deduplicated: 4
* Other variants: AOI2BB1X1 (asdf.cdl), AOI2BB1X2 (asdf.cdl), AOI2BB1X4 (asdf.cdl)
* ============================================================
.SUBCKT AOI2BB1XL A0N A1N B0 VDD VSS Y
*.PININFO A0N:I A1N:I B0:I VDD:I VSS:I Y:O
Mmn2 Y B0 VSS VSS g45n1svt m=1 l=45n w=145n
Mmn1 net100 A1N VSS VSS g45n1svt m=1 l=45n w=145n
Mmn3 Y net100 VSS VSS g45n1svt m=1 l=45n w=145n
Mmn0 net100 A0N VSS VSS g45n1svt m=1 l=45n w=145n
Mmp3 Y net100 net79 VDD g45p1svt m=1 l=45n w=215n
Mmp2 net79 B0 VDD VDD g45p1svt m=1 l=45n w=215n
Mmp1 net100 A1N net87 VDD g45p1svt m=1 l=45n w=215n
Mmp0 net87 A0N VDD VDD g45p1svt m=1 l=45n w=215n
.ENDS

* ============================================================
* Gate type    : AOI2BB2
* Chosen from  : AOI2BB2XL  [asdf.cdl]
* Total instances deduplicated: 4
* Other variants: AOI2BB2X1 (asdf.cdl), AOI2BB2X2 (asdf.cdl), AOI2BB2X4 (asdf.cdl)