.SUBCKT c1355 G1 G10 G11 G12 G13 N384 N385 N386 N387 N388 N389 N390 N391 N392 N393 N394 N395 N396 N397 N398 N399 N400 N401 N402 N403 N404 N405 N406 N407 N408 N409 N410 N411 N412 N413 N414 N415 G14 G15 G16 G17 G18 G19 G2 G20 G21 G22 G23 G24 G25 G26 G27 G28 G29 G3 G30 G31 G32 G33 G34 G35 G36 G37 G38 G39 G4 G40 G41 G5 G6 G7 G8 G9 VDD VSS 
M1 U185/net4 U185/net10 U185/net14 VSS nmos W=0.155u L=0.04u
M2 U185/net6 G32 U185/net14 VSS nmos W=0.155u L=0.04u
M3 U185/net4 n153 VSS VSS nmos W=0.155u L=0.04u
M4 U185/net6 U185/net4 VSS VSS nmos W=0.155u L=0.04u
M5 N415 U185/net14 VSS VSS nmos W=0.155u L=0.04u
M6 U185/net10 G32 VSS VSS nmos W=0.155u L=0.04u
M7 U185/net4 G32 U185/net14 VDD pmos W=0.205u L=0.04u
M8 U185/net6 U185/net10 U185/net14 VDD pmos W=0.205u L=0.04u
M9 U185/net4 n153 VDD VDD pmos W=0.205u L=0.04u
M10 U185/net6 U185/net4 VDD VDD pmos W=0.205u L=0.04u
M11 N415 U185/net14 VDD VDD pmos W=0.205u L=0.04u
M12 U185/net10 G32 VDD VDD pmos W=0.205u L=0.04u
M13 U186/XU1-net6 n155 VSS VSS nmos W=0.155u L=0.04u
M14 n153 n154 U186/XU1-net6 VSS nmos W=0.155u L=0.04u
M15 n153 n155 VDD VDD pmos W=0.155u L=0.04u
M16 n153 n154 VDD VDD pmos W=0.155u L=0.04u
M17 U187/net4 U187/net10 U187/net14 VSS nmos W=0.155u L=0.04u
M18 U187/net6 G31 U187/net14 VSS nmos W=0.155u L=0.04u
M19 U187/net4 n156 VSS VSS nmos W=0.155u L=0.04u
M20 U187/net6 U187/net4 VSS VSS nmos W=0.155u L=0.04u
M21 N414 U187/net14 VSS VSS nmos W=0.155u L=0.04u
M22 U187/net10 G31 VSS VSS nmos W=0.155u L=0.04u
M23 U187/net4 G31 U187/net14 VDD pmos W=0.205u L=0.04u
M24 U187/net6 U187/net10 U187/net14 VDD pmos W=0.205u L=0.04u
M25 U187/net4 n156 VDD VDD pmos W=0.205u L=0.04u
M26 U187/net6 U187/net4 VDD VDD pmos W=0.205u L=0.04u
M27 N414 U187/net14 VDD VDD pmos W=0.205u L=0.04u
M28 U187/net10 G31 VDD VDD pmos W=0.205u L=0.04u
M29 U188/XU1-net6 n157 VSS VSS nmos W=0.155u L=0.04u
M30 n156 n154 U188/XU1-net6 VSS nmos W=0.155u L=0.04u
M31 n156 n157 VDD VDD pmos W=0.155u L=0.04u
M32 n156 n154 VDD VDD pmos W=0.155u L=0.04u
M33 U189/net4 U189/net10 U189/net14 VSS nmos W=0.155u L=0.04u
M34 U189/net6 G30 U189/net14 VSS nmos W=0.155u L=0.04u
M35 U189/net4 n158 VSS VSS nmos W=0.155u L=0.04u
M36 U189/net6 U189/net4 VSS VSS nmos W=0.155u L=0.04u
M37 N413 U189/net14 VSS VSS nmos W=0.155u L=0.04u
M38 U189/net10 G30 VSS VSS nmos W=0.155u L=0.04u
M39 U189/net4 G30 U189/net14 VDD pmos W=0.205u L=0.04u
M40 U189/net6 U189/net10 U189/net14 VDD pmos W=0.205u L=0.04u
M41 U189/net4 n158 VDD VDD pmos W=0.205u L=0.04u
M42 U189/net6 U189/net4 VDD VDD pmos W=0.205u L=0.04u
M43 N413 U189/net14 VDD VDD pmos W=0.205u L=0.04u
M44 U189/net10 G30 VDD VDD pmos W=0.205u L=0.04u
M45 U190/XU1-net6 n154 VSS VSS nmos W=0.155u L=0.04u
M46 n158 n159 U190/XU1-net6 VSS nmos W=0.155u L=0.04u
M47 n158 n154 VDD VDD pmos W=0.155u L=0.04u
M48 n158 n159 VDD VDD pmos W=0.155u L=0.04u
M49 U191/net4 U191/net10 U191/net14 VSS nmos W=0.155u L=0.04u
M50 U191/net6 G29 U191/net14 VSS nmos W=0.155u L=0.04u
M51 U191/net4 n160 VSS VSS nmos W=0.155u L=0.04u
M52 U191/net6 U191/net4 VSS VSS nmos W=0.155u L=0.04u
M53 N412 U191/net14 VSS VSS nmos W=0.155u L=0.04u
M54 U191/net10 G29 VSS VSS nmos W=0.155u L=0.04u
M55 U191/net4 G29 U191/net14 VDD pmos W=0.205u L=0.04u
M56 U191/net6 U191/net10 U191/net14 VDD pmos W=0.205u L=0.04u
M57 U191/net4 n160 VDD VDD pmos W=0.205u L=0.04u
M58 U191/net6 U191/net4 VDD VDD pmos W=0.205u L=0.04u
M59 N412 U191/net14 VDD VDD pmos W=0.205u L=0.04u
M60 U191/net10 G29 VDD VDD pmos W=0.205u L=0.04u
M61 U192/XU1-net6 n154 VSS VSS nmos W=0.155u L=0.04u
M62 n160 n161 U192/XU1-net6 VSS nmos W=0.155u L=0.04u
M63 n160 n154 VDD VDD pmos W=0.155u L=0.04u
M64 n160 n161 VDD VDD pmos W=0.155u L=0.04u
M65 n154 n164 VSS VSS nmos W=0.155u L=0.04u
M66 n154 n163 VSS VSS nmos W=0.155u L=0.04u
M67 n154 U193/net12 VSS VSS nmos W=0.155u L=0.04u
M68 U193/net12 n162 VSS VSS nmos W=0.155u L=0.04u
M69 U193/XU9-net9 U193/net12 VDD VDD pmos W=0.41u L=0.04u
M70 U193/XU9-net12 n163 U193/XU9-net9 VDD pmos W=0.41u L=0.04u
M71 n154 n164 U193/XU9-net12 VDD pmos W=0.41u L=0.04u
M72 U193/net12 n162 VDD VDD pmos W=0.31u L=0.04u
M73 U194/net4 U194/net10 U194/net14 VSS nmos W=0.155u L=0.04u
M74 U194/net6 G28 U194/net14 VSS nmos W=0.155u L=0.04u
M75 U194/net4 n165 VSS VSS nmos W=0.155u L=0.04u
M76 U194/net6 U194/net4 VSS VSS nmos W=0.155u L=0.04u
M77 N411 U194/net14 VSS VSS nmos W=0.155u L=0.04u
M78 U194/net10 G28 VSS VSS nmos W=0.155u L=0.04u
M79 U194/net4 G28 U194/net14 VDD pmos W=0.205u L=0.04u
M80 U194/net6 U194/net10 U194/net14 VDD pmos W=0.205u L=0.04u
M81 U194/net4 n165 VDD VDD pmos W=0.205u L=0.04u
M82 U194/net6 U194/net4 VDD VDD pmos W=0.205u L=0.04u
M83 N411 U194/net14 VDD VDD pmos W=0.205u L=0.04u
M84 U194/net10 G28 VDD VDD pmos W=0.205u L=0.04u
M85 U195/XU1-net6 n155 VSS VSS nmos W=0.155u L=0.04u
M86 n165 n166 U195/XU1-net6 VSS nmos W=0.155u L=0.04u
M87 n165 n155 VDD VDD pmos W=0.155u L=0.04u
M88 n165 n166 VDD VDD pmos W=0.155u L=0.04u
M89 U196/net4 U196/net10 U196/net14 VSS nmos W=0.155u L=0.04u
M90 U196/net6 G27 U196/net14 VSS nmos W=0.155u L=0.04u
M91 U196/net4 n167 VSS VSS nmos W=0.155u L=0.04u
M92 U196/net6 U196/net4 VSS VSS nmos W=0.155u L=0.04u
M93 N410 U196/net14 VSS VSS nmos W=0.155u L=0.04u
M94 U196/net10 G27 VSS VSS nmos W=0.155u L=0.04u
M95 U196/net4 G27 U196/net14 VDD pmos W=0.205u L=0.04u
M96 U196/net6 U196/net10 U196/net14 VDD pmos W=0.205u L=0.04u
M97 U196/net4 n167 VDD VDD pmos W=0.205u L=0.04u
M98 U196/net6 U196/net4 VDD VDD pmos W=0.205u L=0.04u
M99 N410 U196/net14 VDD VDD pmos W=0.205u L=0.04u
M100 U196/net10 G27 VDD VDD pmos W=0.205u L=0.04u
M101 U197/XU1-net6 n157 VSS VSS nmos W=0.155u L=0.04u
M102 n167 n166 U197/XU1-net6 VSS nmos W=0.155u L=0.04u
M103 n167 n157 VDD VDD pmos W=0.155u L=0.04u
M104 n167 n166 VDD VDD pmos W=0.155u L=0.04u
M105 U198/net4 U198/net10 U198/net14 VSS nmos W=0.155u L=0.04u
M106 U198/net6 G26 U198/net14 VSS nmos W=0.155u L=0.04u
M107 U198/net4 n168 VSS VSS nmos W=0.155u L=0.04u
M108 U198/net6 U198/net4 VSS VSS nmos W=0.155u L=0.04u
M109 N409 U198/net14 VSS VSS nmos W=0.155u L=0.04u
M110 U198/net10 G26 VSS VSS nmos W=0.155u L=0.04u
M111 U198/net4 G26 U198/net14 VDD pmos W=0.205u L=0.04u
M112 U198/net6 U198/net10 U198/net14 VDD pmos W=0.205u L=0.04u
M113 U198/net4 n168 VDD VDD pmos W=0.205u L=0.04u
M114 U198/net6 U198/net4 VDD VDD pmos W=0.205u L=0.04u
M115 N409 U198/net14 VDD VDD pmos W=0.205u L=0.04u
M116 U198/net10 G26 VDD VDD pmos W=0.205u L=0.04u
M117 U199/XU1-net6 n159 VSS VSS nmos W=0.155u L=0.04u
M118 n168 n166 U199/XU1-net6 VSS nmos W=0.155u L=0.04u
M119 n168 n159 VDD VDD pmos W=0.155u L=0.04u
M120 n168 n166 VDD VDD pmos W=0.155u L=0.04u
M121 U200/net4 U200/net10 U200/net14 VSS nmos W=0.155u L=0.04u
M122 U200/net6 G25 U200/net14 VSS nmos W=0.155u L=0.04u
M123 U200/net4 n169 VSS VSS nmos W=0.155u L=0.04u
M124 U200/net6 U200/net4 VSS VSS nmos W=0.155u L=0.04u
M125 N408 U200/net14 VSS VSS nmos W=0.155u L=0.04u
M126 U200/net10 G25 VSS VSS nmos W=0.155u L=0.04u
M127 U200/net4 G25 U200/net14 VDD pmos W=0.205u L=0.04u
M128 U200/net6 U200/net10 U200/net14 VDD pmos W=0.205u L=0.04u
M129 U200/net4 n169 VDD VDD pmos W=0.205u L=0.04u
M130 U200/net6 U200/net4 VDD VDD pmos W=0.205u L=0.04u
M131 N408 U200/net14 VDD VDD pmos W=0.205u L=0.04u
M132 U200/net10 G25 VDD VDD pmos W=0.205u L=0.04u
M133 U201/XU1-net6 n161 VSS VSS nmos W=0.155u L=0.04u
M134 n169 n166 U201/XU1-net6 VSS nmos W=0.155u L=0.04u
M135 n169 n161 VDD VDD pmos W=0.155u L=0.04u
M136 n169 n166 VDD VDD pmos W=0.155u L=0.04u
M137 n166 n171 VSS VSS nmos W=0.155u L=0.04u
M138 n166 n170 VSS VSS nmos W=0.155u L=0.04u
M139 n166 U202/net12 VSS VSS nmos W=0.155u L=0.04u
M140 U202/net12 n162 VSS VSS nmos W=0.155u L=0.04u
M141 U202/XU9-net9 U202/net12 VDD VDD pmos W=0.41u L=0.04u
M142 U202/XU9-net12 n170 U202/XU9-net9 VDD pmos W=0.41u L=0.04u
M143 n166 n171 U202/XU9-net12 VDD pmos W=0.41u L=0.04u
M144 U202/net12 n162 VDD VDD pmos W=0.31u L=0.04u
M145 n162 n174 VSS VSS nmos W=0.155u L=0.04u
M146 n162 n173 VSS VSS nmos W=0.155u L=0.04u
M147 n162 U203/net12 VSS VSS nmos W=0.155u L=0.04u
M148 U203/net12 n172 VSS VSS nmos W=0.155u L=0.04u
M149 U203/XU9-net9 U203/net12 VDD VDD pmos W=0.41u L=0.04u
M150 U203/XU9-net12 n173 U203/XU9-net9 VDD pmos W=0.41u L=0.04u
M151 n162 n174 U203/XU9-net12 VDD pmos W=0.41u L=0.04u
M152 U203/net12 n172 VDD VDD pmos W=0.31u L=0.04u
M153 U204/net4 U204/net10 U204/net14 VSS nmos W=0.155u L=0.04u
M154 U204/net6 G24 U204/net14 VSS nmos W=0.155u L=0.04u
M155 U204/net4 n175 VSS VSS nmos W=0.155u L=0.04u
M156 U204/net6 U204/net4 VSS VSS nmos W=0.155u L=0.04u
M157 N407 U204/net14 VSS VSS nmos W=0.155u L=0.04u
M158 U204/net10 G24 VSS VSS nmos W=0.155u L=0.04u
M159 U204/net4 G24 U204/net14 VDD pmos W=0.205u L=0.04u
M160 U204/net6 U204/net10 U204/net14 VDD pmos W=0.205u L=0.04u
M161 U204/net4 n175 VDD VDD pmos W=0.205u L=0.04u
M162 U204/net6 U204/net4 VDD VDD pmos W=0.205u L=0.04u
M163 N407 U204/net14 VDD VDD pmos W=0.205u L=0.04u
M164 U204/net10 G24 VDD VDD pmos W=0.205u L=0.04u
M165 U205/XU1-net6 n155 VSS VSS nmos W=0.155u L=0.04u
M166 n175 n176 U205/XU1-net6 VSS nmos W=0.155u L=0.04u
M167 n175 n155 VDD VDD pmos W=0.155u L=0.04u
M168 n175 n176 VDD VDD pmos W=0.155u L=0.04u
M169 U206/net4 U206/net10 U206/net14 VSS nmos W=0.155u L=0.04u
M170 U206/net6 G23 U206/net14 VSS nmos W=0.155u L=0.04u
M171 U206/net4 n177 VSS VSS nmos W=0.155u L=0.04u
M172 U206/net6 U206/net4 VSS VSS nmos W=0.155u L=0.04u
M173 N406 U206/net14 VSS VSS nmos W=0.155u L=0.04u
M174 U206/net10 G23 VSS VSS nmos W=0.155u L=0.04u
M175 U206/net4 G23 U206/net14 VDD pmos W=0.205u L=0.04u
M176 U206/net6 U206/net10 U206/net14 VDD pmos W=0.205u L=0.04u
M177 U206/net4 n177 VDD VDD pmos W=0.205u L=0.04u
M178 U206/net6 U206/net4 VDD VDD pmos W=0.205u L=0.04u
M179 N406 U206/net14 VDD VDD pmos W=0.205u L=0.04u
M180 U206/net10 G23 VDD VDD pmos W=0.205u L=0.04u
M181 U207/XU1-net6 n157 VSS VSS nmos W=0.155u L=0.04u
M182 n177 n176 U207/XU1-net6 VSS nmos W=0.155u L=0.04u
M183 n177 n157 VDD VDD pmos W=0.155u L=0.04u
M184 n177 n176 VDD VDD pmos W=0.155u L=0.04u
M185 U208/net4 U208/net10 U208/net14 VSS nmos W=0.155u L=0.04u
M186 U208/net6 G22 U208/net14 VSS nmos W=0.155u L=0.04u
M187 U208/net4 n178 VSS VSS nmos W=0.155u L=0.04u
M188 U208/net6 U208/net4 VSS VSS nmos W=0.155u L=0.04u
M189 N405 U208/net14 VSS VSS nmos W=0.155u L=0.04u
M190 U208/net10 G22 VSS VSS nmos W=0.155u L=0.04u
M191 U208/net4 G22 U208/net14 VDD pmos W=0.205u L=0.04u
M192 U208/net6 U208/net10 U208/net14 VDD pmos W=0.205u L=0.04u
M193 U208/net4 n178 VDD VDD pmos W=0.205u L=0.04u
M194 U208/net6 U208/net4 VDD VDD pmos W=0.205u L=0.04u
M195 N405 U208/net14 VDD VDD pmos W=0.205u L=0.04u
M196 U208/net10 G22 VDD VDD pmos W=0.205u L=0.04u
M197 U209/XU1-net6 n159 VSS VSS nmos W=0.155u L=0.04u
M198 n178 n176 U209/XU1-net6 VSS nmos W=0.155u L=0.04u
M199 n178 n159 VDD VDD pmos W=0.155u L=0.04u
M200 n178 n176 VDD VDD pmos W=0.155u L=0.04u
M201 U210/net4 U210/net10 U210/net14 VSS nmos W=0.155u L=0.04u
M202 U210/net6 G21 U210/net14 VSS nmos W=0.155u L=0.04u
M203 U210/net4 n179 VSS VSS nmos W=0.155u L=0.04u
M204 U210/net6 U210/net4 VSS VSS nmos W=0.155u L=0.04u
M205 N404 U210/net14 VSS VSS nmos W=0.155u L=0.04u
M206 U210/net10 G21 VSS VSS nmos W=0.155u L=0.04u
M207 U210/net4 G21 U210/net14 VDD pmos W=0.205u L=0.04u
M208 U210/net6 U210/net10 U210/net14 VDD pmos W=0.205u L=0.04u
M209 U210/net4 n179 VDD VDD pmos W=0.205u L=0.04u
M210 U210/net6 U210/net4 VDD VDD pmos W=0.205u L=0.04u
M211 N404 U210/net14 VDD VDD pmos W=0.205u L=0.04u
M212 U210/net10 G21 VDD VDD pmos W=0.205u L=0.04u
M213 U211/XU1-net6 n161 VSS VSS nmos W=0.155u L=0.04u
M214 n179 n176 U211/XU1-net6 VSS nmos W=0.155u L=0.04u
M215 n179 n161 VDD VDD pmos W=0.155u L=0.04u
M216 n179 n176 VDD VDD pmos W=0.155u L=0.04u
M217 n176 n164 VSS VSS nmos W=0.155u L=0.04u
M218 n176 n163 VSS VSS nmos W=0.155u L=0.04u
M219 n176 U212/net12 VSS VSS nmos W=0.155u L=0.04u
M220 U212/net12 n180 VSS VSS nmos W=0.155u L=0.04u
M221 U212/XU9-net9 U212/net12 VDD VDD pmos W=0.41u L=0.04u
M222 U212/XU9-net12 n163 U212/XU9-net9 VDD pmos W=0.41u L=0.04u
M223 n176 n164 U212/XU9-net12 VDD pmos W=0.41u L=0.04u
M224 U212/net12 n180 VDD VDD pmos W=0.31u L=0.04u
M225 n163 n170 VSS VSS nmos W=0.135u L=0.04u
M226 n163 n170 VDD VDD pmos W=0.205u L=0.04u
M227 U214/net4 U214/net10 U214/net14 VSS nmos W=0.155u L=0.04u
M228 U214/net6 G20 U214/net14 VSS nmos W=0.155u L=0.04u
M229 U214/net4 n181 VSS VSS nmos W=0.155u L=0.04u
M230 U214/net6 U214/net4 VSS VSS nmos W=0.155u L=0.04u
M231 N403 U214/net14 VSS VSS nmos W=0.155u L=0.04u
M232 U214/net10 G20 VSS VSS nmos W=0.155u L=0.04u
M233 U214/net4 G20 U214/net14 VDD pmos W=0.205u L=0.04u
M234 U214/net6 U214/net10 U214/net14 VDD pmos W=0.205u L=0.04u
M235 U214/net4 n181 VDD VDD pmos W=0.205u L=0.04u
M236 U214/net6 U214/net4 VDD VDD pmos W=0.205u L=0.04u
M237 N403 U214/net14 VDD VDD pmos W=0.205u L=0.04u
M238 U214/net10 G20 VDD VDD pmos W=0.205u L=0.04u
M239 U215/XU1-net6 n155 VSS VSS nmos W=0.155u L=0.04u
M240 n181 n182 U215/XU1-net6 VSS nmos W=0.155u L=0.04u
M241 n181 n155 VDD VDD pmos W=0.155u L=0.04u
M242 n181 n182 VDD VDD pmos W=0.155u L=0.04u
M243 U216/net4 U216/net10 U216/net14 VSS nmos W=0.155u L=0.04u
M244 U216/net6 G19 U216/net14 VSS nmos W=0.155u L=0.04u
M245 U216/net4 n183 VSS VSS nmos W=0.155u L=0.04u
M246 U216/net6 U216/net4 VSS VSS nmos W=0.155u L=0.04u
M247 N402 U216/net14 VSS VSS nmos W=0.155u L=0.04u
M248 U216/net10 G19 VSS VSS nmos W=0.155u L=0.04u
M249 U216/net4 G19 U216/net14 VDD pmos W=0.205u L=0.04u
M250 U216/net6 U216/net10 U216/net14 VDD pmos W=0.205u L=0.04u
M251 U216/net4 n183 VDD VDD pmos W=0.205u L=0.04u
M252 U216/net6 U216/net4 VDD VDD pmos W=0.205u L=0.04u
M253 N402 U216/net14 VDD VDD pmos W=0.205u L=0.04u
M254 U216/net10 G19 VDD VDD pmos W=0.205u L=0.04u
M255 U217/XU1-net6 n157 VSS VSS nmos W=0.155u L=0.04u
M256 n183 n182 U217/XU1-net6 VSS nmos W=0.155u L=0.04u
M257 n183 n157 VDD VDD pmos W=0.155u L=0.04u
M258 n183 n182 VDD VDD pmos W=0.155u L=0.04u
M259 U218/net4 U218/net10 U218/net14 VSS nmos W=0.155u L=0.04u
M260 U218/net6 G18 U218/net14 VSS nmos W=0.155u L=0.04u
M261 U218/net4 n184 VSS VSS nmos W=0.155u L=0.04u
M262 U218/net6 U218/net4 VSS VSS nmos W=0.155u L=0.04u
M263 N401 U218/net14 VSS VSS nmos W=0.155u L=0.04u
M264 U218/net10 G18 VSS VSS nmos W=0.155u L=0.04u
M265 U218/net4 G18 U218/net14 VDD pmos W=0.205u L=0.04u
M266 U218/net6 U218/net10 U218/net14 VDD pmos W=0.205u L=0.04u
M267 U218/net4 n184 VDD VDD pmos W=0.205u L=0.04u
M268 U218/net6 U218/net4 VDD VDD pmos W=0.205u L=0.04u
M269 N401 U218/net14 VDD VDD pmos W=0.205u L=0.04u
M270 U218/net10 G18 VDD VDD pmos W=0.205u L=0.04u
M271 U219/XU1-net6 n159 VSS VSS nmos W=0.155u L=0.04u
M272 n184 n182 U219/XU1-net6 VSS nmos W=0.155u L=0.04u
M273 n184 n159 VDD VDD pmos W=0.155u L=0.04u
M274 n184 n182 VDD VDD pmos W=0.155u L=0.04u
M275 U220/net4 U220/net10 U220/net14 VSS nmos W=0.155u L=0.04u
M276 U220/net6 G17 U220/net14 VSS nmos W=0.155u L=0.04u
M277 U220/net4 n185 VSS VSS nmos W=0.155u L=0.04u
M278 U220/net6 U220/net4 VSS VSS nmos W=0.155u L=0.04u
M279 N400 U220/net14 VSS VSS nmos W=0.155u L=0.04u
M280 U220/net10 G17 VSS VSS nmos W=0.155u L=0.04u
M281 U220/net4 G17 U220/net14 VDD pmos W=0.205u L=0.04u
M282 U220/net6 U220/net10 U220/net14 VDD pmos W=0.205u L=0.04u
M283 U220/net4 n185 VDD VDD pmos W=0.205u L=0.04u
M284 U220/net6 U220/net4 VDD VDD pmos W=0.205u L=0.04u
M285 N400 U220/net14 VDD VDD pmos W=0.205u L=0.04u
M286 U220/net10 G17 VDD VDD pmos W=0.205u L=0.04u
M287 U221/XU1-net6 n161 VSS VSS nmos W=0.155u L=0.04u
M288 n185 n182 U221/XU1-net6 VSS nmos W=0.155u L=0.04u
M289 n185 n161 VDD VDD pmos W=0.155u L=0.04u
M290 n185 n182 VDD VDD pmos W=0.155u L=0.04u
M291 n182 n170 VSS VSS nmos W=0.155u L=0.04u
M292 n182 n171 VSS VSS nmos W=0.155u L=0.04u
M293 n182 U222/net12 VSS VSS nmos W=0.155u L=0.04u
M294 U222/net12 n180 VSS VSS nmos W=0.155u L=0.04u
M295 U222/XU9-net9 U222/net12 VDD VDD pmos W=0.41u L=0.04u
M296 U222/XU9-net12 n171 U222/XU9-net9 VDD pmos W=0.41u L=0.04u
M297 n182 n170 U222/XU9-net12 VDD pmos W=0.41u L=0.04u
M298 U222/net12 n180 VDD VDD pmos W=0.31u L=0.04u
M299 n171 n164 VSS VSS nmos W=0.135u L=0.04u
M300 n171 n164 VDD VDD pmos W=0.205u L=0.04u
M301 U224/net7 n174 U224/X_u4-net10 VSS nmos W=0.155u L=0.04u
M302 U224/X_u4-net10 n172 U224/X_u4-net13 VSS nmos W=0.155u L=0.04u
M303 U224/X_u4-net13 n173 VSS VSS nmos W=0.155u L=0.04u
M304 n180 U224/net7 VSS VSS nmos W=0.155u L=0.04u
M305 U224/net7 n173 VDD VDD pmos W=0.205u L=0.04u
M306 U224/net7 n174 VDD VDD pmos W=0.205u L=0.04u
M307 U224/net7 n172 VDD VDD pmos W=0.205u L=0.04u
M308 n180 U224/net7 VDD VDD pmos W=0.205u L=0.04u
M309 n172 n155 U225/net14 VSS nmos W=0.155u L=0.04u
M310 U225/net14 n159 VSS VSS nmos W=0.155u L=0.04u
M311 U225/net14 n186 VSS VSS nmos W=0.155u L=0.04u
M312 n172 n161 U225/net14 VSS nmos W=0.155u L=0.04u
M313 n172 n157 U225/net14 VSS nmos W=0.155u L=0.04u
M314 n172 n159 U225/XI16-net11 VDD pmos W=0.205u L=0.04u
M315 U225/XI16-net11 n186 VDD VDD pmos W=0.205u L=0.04u
M316 n172 n161 U225/XI15-net11 VDD pmos W=0.205u L=0.04u
M317 U225/XI15-net11 n157 U225/XI15-net18 VDD pmos W=0.205u L=0.04u
M318 U225/XI15-net18 n155 VDD VDD pmos W=0.205u L=0.04u
M319 U226/net26 n189 VSS VSS nmos W=0.155u L=0.04u
M320 U226/net26 n187 n186 VSS nmos W=0.155u L=0.04u
M321 U226/net26 n188 n186 VSS nmos W=0.155u L=0.04u
M322 n186 n187 U226/net38 VSS nmos W=0.155u L=0.04u
M323 U226/net38 n188 VSS VSS nmos W=0.155u L=0.04u
M324 U226/net16 n188 VDD VDD pmos W=0.205u L=0.04u
M325 U226/net20 n187 n186 VDD pmos W=0.205u L=0.04u
M326 n186 n187 U226/net16 VDD pmos W=0.205u L=0.04u
M327 U226/net20 n188 n186 VDD pmos W=0.205u L=0.04u
M328 U226/net20 n189 VDD VDD pmos W=0.205u L=0.04u
M329 U227/net19 n192 VSS VSS nmos W=0.155u L=0.04u
M330 n189 n192 U227/net40 VSS nmos W=0.155u L=0.04u
M331 n189 U227/net19 U227/net36 VSS nmos W=0.155u L=0.04u
M332 U227/net40 n191 VSS VSS nmos W=0.31u L=0.04u
M333 U227/net36 n190 VSS VSS nmos W=0.155u L=0.04u
M334 U227/net19 n192 VDD VDD pmos W=0.205u L=0.04u
M335 n189 U227/net19 U227/net26 VDD pmos W=0.325u L=0.04u
M336 U227/net26 n191 VDD VDD pmos W=0.41u L=0.04u
M337 n189 n192 U227/net30 VDD pmos W=0.325u L=0.04u
M338 U227/net30 n190 VDD VDD pmos W=0.205u L=0.04u
M339 U228/net19 n195 VSS VSS nmos W=0.155u L=0.04u
M340 n188 n195 U228/net40 VSS nmos W=0.155u L=0.04u
M341 n188 U228/net19 U228/net36 VSS nmos W=0.155u L=0.04u
M342 U228/net40 n194 VSS VSS nmos W=0.31u L=0.04u
M343 U228/net36 n193 VSS VSS nmos W=0.155u L=0.04u
M344 U228/net19 n195 VDD VDD pmos W=0.205u L=0.04u
M345 n188 U228/net19 U228/net26 VDD pmos W=0.325u L=0.04u
M346 U228/net26 n194 VDD VDD pmos W=0.41u L=0.04u
M347 n188 n195 U228/net30 VDD pmos W=0.325u L=0.04u
M348 U228/net30 n193 VDD VDD pmos W=0.205u L=0.04u
M349 U229/net4 U229/net10 U229/net14 VSS nmos W=0.155u L=0.04u
M350 U229/net6 G16 U229/net14 VSS nmos W=0.155u L=0.04u
M351 U229/net4 n196 VSS VSS nmos W=0.155u L=0.04u
M352 U229/net6 U229/net4 VSS VSS nmos W=0.155u L=0.04u
M353 N399 U229/net14 VSS VSS nmos W=0.155u L=0.04u
M354 U229/net10 G16 VSS VSS nmos W=0.155u L=0.04u
M355 U229/net4 G16 U229/net14 VDD pmos W=0.205u L=0.04u
M356 U229/net6 U229/net10 U229/net14 VDD pmos W=0.205u L=0.04u
M357 U229/net4 n196 VDD VDD pmos W=0.205u L=0.04u
M358 U229/net6 U229/net4 VDD VDD pmos W=0.205u L=0.04u
M359 N399 U229/net14 VDD VDD pmos W=0.205u L=0.04u
M360 U229/net10 G16 VDD VDD pmos W=0.205u L=0.04u
M361 U230/XU1-net6 n170 VSS VSS nmos W=0.155u L=0.04u
M362 n196 n197 U230/XU1-net6 VSS nmos W=0.155u L=0.04u
M363 n196 n170 VDD VDD pmos W=0.155u L=0.04u
M364 n196 n197 VDD VDD pmos W=0.155u L=0.04u
M365 U231/net4 U231/net10 U231/net14 VSS nmos W=0.155u L=0.04u
M366 U231/net6 G15 U231/net14 VSS nmos W=0.155u L=0.04u
M367 U231/net4 n198 VSS VSS nmos W=0.155u L=0.04u
M368 U231/net6 U231/net4 VSS VSS nmos W=0.155u L=0.04u
M369 N398 U231/net14 VSS VSS nmos W=0.155u L=0.04u
M370 U231/net10 G15 VSS VSS nmos W=0.155u L=0.04u
M371 U231/net4 G15 U231/net14 VDD pmos W=0.205u L=0.04u
M372 U231/net6 U231/net10 U231/net14 VDD pmos W=0.205u L=0.04u
M373 U231/net4 n198 VDD VDD pmos W=0.205u L=0.04u
M374 U231/net6 U231/net4 VDD VDD pmos W=0.205u L=0.04u
M375 N398 U231/net14 VDD VDD pmos W=0.205u L=0.04u
M376 U231/net10 G15 VDD VDD pmos W=0.205u L=0.04u
M377 U232/XU1-net6 n164 VSS VSS nmos W=0.155u L=0.04u
M378 n198 n197 U232/XU1-net6 VSS nmos W=0.155u L=0.04u
M379 n198 n164 VDD VDD pmos W=0.155u L=0.04u
M380 n198 n197 VDD VDD pmos W=0.155u L=0.04u
M381 U233/net4 U233/net10 U233/net14 VSS nmos W=0.155u L=0.04u
M382 U233/net6 G14 U233/net14 VSS nmos W=0.155u L=0.04u
M383 U233/net4 n199 VSS VSS nmos W=0.155u L=0.04u
M384 U233/net6 U233/net4 VSS VSS nmos W=0.155u L=0.04u
M385 N397 U233/net14 VSS VSS nmos W=0.155u L=0.04u
M386 U233/net10 G14 VSS VSS nmos W=0.155u L=0.04u
M387 U233/net4 G14 U233/net14 VDD pmos W=0.205u L=0.04u
M388 U233/net6 U233/net10 U233/net14 VDD pmos W=0.205u L=0.04u
M389 U233/net4 n199 VDD VDD pmos W=0.205u L=0.04u
M390 U233/net6 U233/net4 VDD VDD pmos W=0.205u L=0.04u
M391 N397 U233/net14 VDD VDD pmos W=0.205u L=0.04u
M392 U233/net10 G14 VDD VDD pmos W=0.205u L=0.04u
M393 U234/XU1-net6 n200 VSS VSS nmos W=0.155u L=0.04u
M394 n199 n197 U234/XU1-net6 VSS nmos W=0.155u L=0.04u
M395 n199 n200 VDD VDD pmos W=0.155u L=0.04u
M396 n199 n197 VDD VDD pmos W=0.155u L=0.04u
M397 U235/net4 U235/net10 U235/net14 VSS nmos W=0.155u L=0.04u
M398 U235/net6 G13 U235/net14 VSS nmos W=0.155u L=0.04u
M399 U235/net4 n201 VSS VSS nmos W=0.155u L=0.04u
M400 U235/net6 U235/net4 VSS VSS nmos W=0.155u L=0.04u
M401 N396 U235/net14 VSS VSS nmos W=0.155u L=0.04u
M402 U235/net10 G13 VSS VSS nmos W=0.155u L=0.04u
M403 U235/net4 G13 U235/net14 VDD pmos W=0.205u L=0.04u
M404 U235/net6 U235/net10 U235/net14 VDD pmos W=0.205u L=0.04u
M405 U235/net4 n201 VDD VDD pmos W=0.205u L=0.04u
M406 U235/net6 U235/net4 VDD VDD pmos W=0.205u L=0.04u
M407 N396 U235/net14 VDD VDD pmos W=0.205u L=0.04u
M408 U235/net10 G13 VDD VDD pmos W=0.205u L=0.04u
M409 U236/XU1-net6 n173 VSS VSS nmos W=0.155u L=0.04u
M410 n201 n197 U236/XU1-net6 VSS nmos W=0.155u L=0.04u
M411 n201 n173 VDD VDD pmos W=0.155u L=0.04u
M412 n201 n197 VDD VDD pmos W=0.155u L=0.04u
M413 n197 n157 VSS VSS nmos W=0.155u L=0.04u
M414 n197 n203 VSS VSS nmos W=0.155u L=0.04u
M415 n197 U237/net12 VSS VSS nmos W=0.155u L=0.04u
M416 U237/net12 n202 VSS VSS nmos W=0.155u L=0.04u
M417 U237/XU9-net9 U237/net12 VDD VDD pmos W=0.41u L=0.04u
M418 U237/XU9-net12 n203 U237/XU9-net9 VDD pmos W=0.41u L=0.04u
M419 n197 n157 U237/XU9-net12 VDD pmos W=0.41u L=0.04u
M420 U237/net12 n202 VDD VDD pmos W=0.31u L=0.04u
M421 U238/net4 U238/net10 U238/net14 VSS nmos W=0.155u L=0.04u
M422 U238/net6 G12 U238/net14 VSS nmos W=0.155u L=0.04u
M423 U238/net4 n204 VSS VSS nmos W=0.155u L=0.04u
M424 U238/net6 U238/net4 VSS VSS nmos W=0.155u L=0.04u
M425 N395 U238/net14 VSS VSS nmos W=0.155u L=0.04u
M426 U238/net10 G12 VSS VSS nmos W=0.155u L=0.04u
M427 U238/net4 G12 U238/net14 VDD pmos W=0.205u L=0.04u
M428 U238/net6 U238/net10 U238/net14 VDD pmos W=0.205u L=0.04u
M429 U238/net4 n204 VDD VDD pmos W=0.205u L=0.04u
M430 U238/net6 U238/net4 VDD VDD pmos W=0.205u L=0.04u
M431 N395 U238/net14 VDD VDD pmos W=0.205u L=0.04u
M432 U238/net10 G12 VDD VDD pmos W=0.205u L=0.04u
M433 U239/XU1-net6 n170 VSS VSS nmos W=0.155u L=0.04u
M434 n204 n205 U239/XU1-net6 VSS nmos W=0.155u L=0.04u
M435 n204 n170 VDD VDD pmos W=0.155u L=0.04u
M436 n204 n205 VDD VDD pmos W=0.155u L=0.04u
M437 U240/net4 U240/net10 U240/net14 VSS nmos W=0.155u L=0.04u
M438 U240/net6 G11 U240/net14 VSS nmos W=0.155u L=0.04u
M439 U240/net4 n206 VSS VSS nmos W=0.155u L=0.04u
M440 U240/net6 U240/net4 VSS VSS nmos W=0.155u L=0.04u
M441 N394 U240/net14 VSS VSS nmos W=0.155u L=0.04u
M442 U240/net10 G11 VSS VSS nmos W=0.155u L=0.04u
M443 U240/net4 G11 U240/net14 VDD pmos W=0.205u L=0.04u
M444 U240/net6 U240/net10 U240/net14 VDD pmos W=0.205u L=0.04u
M445 U240/net4 n206 VDD VDD pmos W=0.205u L=0.04u
M446 U240/net6 U240/net4 VDD VDD pmos W=0.205u L=0.04u
M447 N394 U240/net14 VDD VDD pmos W=0.205u L=0.04u
M448 U240/net10 G11 VDD VDD pmos W=0.205u L=0.04u
M449 U241/XU1-net6 n164 VSS VSS nmos W=0.155u L=0.04u
M450 n206 n205 U241/XU1-net6 VSS nmos W=0.155u L=0.04u
M451 n206 n164 VDD VDD pmos W=0.155u L=0.04u
M452 n206 n205 VDD VDD pmos W=0.155u L=0.04u
M453 U242/net4 U242/net10 U242/net14 VSS nmos W=0.155u L=0.04u
M454 U242/net6 G10 U242/net14 VSS nmos W=0.155u L=0.04u
M455 U242/net4 n207 VSS VSS nmos W=0.155u L=0.04u
M456 U242/net6 U242/net4 VSS VSS nmos W=0.155u L=0.04u
M457 N393 U242/net14 VSS VSS nmos W=0.155u L=0.04u
M458 U242/net10 G10 VSS VSS nmos W=0.155u L=0.04u
M459 U242/net4 G10 U242/net14 VDD pmos W=0.205u L=0.04u
M460 U242/net6 U242/net10 U242/net14 VDD pmos W=0.205u L=0.04u
M461 U242/net4 n207 VDD VDD pmos W=0.205u L=0.04u
M462 U242/net6 U242/net4 VDD VDD pmos W=0.205u L=0.04u
M463 N393 U242/net14 VDD VDD pmos W=0.205u L=0.04u
M464 U242/net10 G10 VDD VDD pmos W=0.205u L=0.04u
M465 U243/XU1-net6 n200 VSS VSS nmos W=0.155u L=0.04u
M466 n207 n205 U243/XU1-net6 VSS nmos W=0.155u L=0.04u
M467 n207 n200 VDD VDD pmos W=0.155u L=0.04u
M468 n207 n205 VDD VDD pmos W=0.155u L=0.04u
M469 U244/net4 U244/net10 U244/net14 VSS nmos W=0.155u L=0.04u
M470 U244/net6 G9 U244/net14 VSS nmos W=0.155u L=0.04u
M471 U244/net4 n208 VSS VSS nmos W=0.155u L=0.04u
M472 U244/net6 U244/net4 VSS VSS nmos W=0.155u L=0.04u
M473 N392 U244/net14 VSS VSS nmos W=0.155u L=0.04u
M474 U244/net10 G9 VSS VSS nmos W=0.155u L=0.04u
M475 U244/net4 G9 U244/net14 VDD pmos W=0.205u L=0.04u
M476 U244/net6 U244/net10 U244/net14 VDD pmos W=0.205u L=0.04u
M477 U244/net4 n208 VDD VDD pmos W=0.205u L=0.04u
M478 U244/net6 U244/net4 VDD VDD pmos W=0.205u L=0.04u
M479 N392 U244/net14 VDD VDD pmos W=0.205u L=0.04u
M480 U244/net10 G9 VDD VDD pmos W=0.205u L=0.04u
M481 U245/XU1-net6 n173 VSS VSS nmos W=0.155u L=0.04u
M482 n208 n205 U245/XU1-net6 VSS nmos W=0.155u L=0.04u
M483 n208 n173 VDD VDD pmos W=0.155u L=0.04u
M484 n208 n205 VDD VDD pmos W=0.155u L=0.04u
M485 n205 n155 VSS VSS nmos W=0.155u L=0.04u
M486 n205 n209 VSS VSS nmos W=0.155u L=0.04u
M487 n205 U246/net12 VSS VSS nmos W=0.155u L=0.04u
M488 U246/net12 n202 VSS VSS nmos W=0.155u L=0.04u
M489 U246/XU9-net9 U246/net12 VDD VDD pmos W=0.41u L=0.04u
M490 U246/XU9-net12 n209 U246/XU9-net9 VDD pmos W=0.41u L=0.04u
M491 n205 n155 U246/XU9-net12 VDD pmos W=0.41u L=0.04u
M492 U246/net12 n202 VDD VDD pmos W=0.31u L=0.04u
M493 U247/net7 n187 U247/X_u4-net10 VSS nmos W=0.155u L=0.04u
M494 U247/X_u4-net10 n210 U247/X_u4-net13 VSS nmos W=0.155u L=0.04u
M495 U247/X_u4-net13 n159 VSS VSS nmos W=0.155u L=0.04u
M496 n202 U247/net7 VSS VSS nmos W=0.155u L=0.04u
M497 U247/net7 n159 VDD VDD pmos W=0.205u L=0.04u
M498 U247/net7 n187 VDD VDD pmos W=0.205u L=0.04u
M499 U247/net7 n210 VDD VDD pmos W=0.205u L=0.04u
M500 n202 U247/net7 VDD VDD pmos W=0.205u L=0.04u
M501 U248/net4 U248/net10 U248/net14 VSS nmos W=0.155u L=0.04u
M502 U248/net6 G8 U248/net14 VSS nmos W=0.155u L=0.04u
M503 U248/net4 n211 VSS VSS nmos W=0.155u L=0.04u
M504 U248/net6 U248/net4 VSS VSS nmos W=0.155u L=0.04u
M505 N391 U248/net14 VSS VSS nmos W=0.155u L=0.04u
M506 U248/net10 G8 VSS VSS nmos W=0.155u L=0.04u
M507 U248/net4 G8 U248/net14 VDD pmos W=0.205u L=0.04u
M508 U248/net6 U248/net10 U248/net14 VDD pmos W=0.205u L=0.04u
M509 U248/net4 n211 VDD VDD pmos W=0.205u L=0.04u
M510 U248/net6 U248/net4 VDD VDD pmos W=0.205u L=0.04u
M511 N391 U248/net14 VDD VDD pmos W=0.205u L=0.04u
M512 U248/net10 G8 VDD VDD pmos W=0.205u L=0.04u
M513 U249/XU1-net6 n170 VSS VSS nmos W=0.155u L=0.04u
M514 n211 n212 U249/XU1-net6 VSS nmos W=0.155u L=0.04u
M515 n211 n170 VDD VDD pmos W=0.155u L=0.04u
M516 n211 n212 VDD VDD pmos W=0.155u L=0.04u
M517 U250/net4 U250/net10 U250/net14 VSS nmos W=0.155u L=0.04u
M518 U250/net6 G7 U250/net14 VSS nmos W=0.155u L=0.04u
M519 U250/net4 n213 VSS VSS nmos W=0.155u L=0.04u
M520 U250/net6 U250/net4 VSS VSS nmos W=0.155u L=0.04u
M521 N390 U250/net14 VSS VSS nmos W=0.155u L=0.04u
M522 U250/net10 G7 VSS VSS nmos W=0.155u L=0.04u
M523 U250/net4 G7 U250/net14 VDD pmos W=0.205u L=0.04u
M524 U250/net6 U250/net10 U250/net14 VDD pmos W=0.205u L=0.04u
M525 U250/net4 n213 VDD VDD pmos W=0.205u L=0.04u
M526 U250/net6 U250/net4 VDD VDD pmos W=0.205u L=0.04u
M527 N390 U250/net14 VDD VDD pmos W=0.205u L=0.04u
M528 U250/net10 G7 VDD VDD pmos W=0.205u L=0.04u
M529 U251/XU1-net6 n164 VSS VSS nmos W=0.155u L=0.04u
M530 n213 n212 U251/XU1-net6 VSS nmos W=0.155u L=0.04u
M531 n213 n164 VDD VDD pmos W=0.155u L=0.04u
M532 n213 n212 VDD VDD pmos W=0.155u L=0.04u
M533 U252/net4 U252/net10 U252/net14 VSS nmos W=0.155u L=0.04u
M534 U252/net6 G6 U252/net14 VSS nmos W=0.155u L=0.04u
M535 U252/net4 n214 VSS VSS nmos W=0.155u L=0.04u
M536 U252/net6 U252/net4 VSS VSS nmos W=0.155u L=0.04u
M537 N389 U252/net14 VSS VSS nmos W=0.155u L=0.04u
M538 U252/net10 G6 VSS VSS nmos W=0.155u L=0.04u
M539 U252/net4 G6 U252/net14 VDD pmos W=0.205u L=0.04u
M540 U252/net6 U252/net10 U252/net14 VDD pmos W=0.205u L=0.04u
M541 U252/net4 n214 VDD VDD pmos W=0.205u L=0.04u
M542 U252/net6 U252/net4 VDD VDD pmos W=0.205u L=0.04u
M543 N389 U252/net14 VDD VDD pmos W=0.205u L=0.04u
M544 U252/net10 G6 VDD VDD pmos W=0.205u L=0.04u
M545 U253/XU1-net6 n200 VSS VSS nmos W=0.155u L=0.04u
M546 n214 n212 U253/XU1-net6 VSS nmos W=0.155u L=0.04u
M547 n214 n200 VDD VDD pmos W=0.155u L=0.04u
M548 n214 n212 VDD VDD pmos W=0.155u L=0.04u
M549 U254/net4 U254/net10 U254/net14 VSS nmos W=0.155u L=0.04u
M550 U254/net6 G5 U254/net14 VSS nmos W=0.155u L=0.04u
M551 U254/net4 n215 VSS VSS nmos W=0.155u L=0.04u
M552 U254/net6 U254/net4 VSS VSS nmos W=0.155u L=0.04u
M553 N388 U254/net14 VSS VSS nmos W=0.155u L=0.04u
M554 U254/net10 G5 VSS VSS nmos W=0.155u L=0.04u
M555 U254/net4 G5 U254/net14 VDD pmos W=0.205u L=0.04u
M556 U254/net6 U254/net10 U254/net14 VDD pmos W=0.205u L=0.04u
M557 U254/net4 n215 VDD VDD pmos W=0.205u L=0.04u
M558 U254/net6 U254/net4 VDD VDD pmos W=0.205u L=0.04u
M559 N388 U254/net14 VDD VDD pmos W=0.205u L=0.04u
M560 U254/net10 G5 VDD VDD pmos W=0.205u L=0.04u
M561 U255/XU1-net6 n173 VSS VSS nmos W=0.155u L=0.04u
M562 n215 n212 U255/XU1-net6 VSS nmos W=0.155u L=0.04u