.SUBCKT c1908 N1 N4 N7 N10 N13 N16 N19 N22 N25 N28 N31 N34 N37 N40 N43 N46 N49 N53 N56 N60 N63 N66 N69 N72 N76 N79 N82 N85 N88 N91 N94 N99 N104 N2753 N2754 N2755 N2756 N2762 N2767 N2768 N2779 N2780 N2781 N2782 N2783 N2784 N2785 N2786 N2787 N2811 N2886 N2887 N2888 N2889 N2890 N2891 N2892 N2899 VDD VSS 
M1 N2899 n177 VSS VSS nmos W=0.155u L=0.04u
M2 N2899 n178 VSS VSS nmos W=0.155u L=0.04u
M3 U184/XI1-net8 n178 VDD VDD pmos W=0.205u L=0.04u
M4 N2899 n177 U184/XI1-net8 VDD pmos W=0.205u L=0.04u
M5 U185/net29 U185/net21 U185/net041 VSS nmos W=0.155u L=0.04u
M6 U185/net035 U185/net19 VSS VSS nmos W=0.155u L=0.04u
M7 U185/net041 U185/net13 VSS VSS nmos W=0.155u L=0.04u
M8 U185/net25 n180 U185/net035 VSS nmos W=0.155u L=0.04u
M9 U185/net19 U185/net17 U185/net25 VSS nmos W=0.155u L=0.04u
M10 U185/net13 U185/net25 U185/net29 VSS nmos W=0.155u L=0.04u
M11 n178 U185/net29 VSS VSS nmos W=0.155u L=0.04u
M12 U185/net13 n181 VSS VSS nmos W=0.155u L=0.04u
M13 U185/net17 n180 VSS VSS nmos W=0.155u L=0.04u
M14 U185/net19 n179 VSS VSS nmos W=0.155u L=0.04u
M15 U185/net21 U185/net25 VSS VSS nmos W=0.155u L=0.04u
M16 U185/net028 U185/net19 VDD VDD pmos W=0.205u L=0.04u
M17 U185/net25 U185/net17 U185/net028 VDD pmos W=0.205u L=0.04u
M18 U185/net29 U185/net25 U185/net029 VDD pmos W=0.205u L=0.04u
M19 U185/net029 U185/net13 VDD VDD pmos W=0.205u L=0.04u
M20 U185/net19 n180 U185/net25 VDD pmos W=0.205u L=0.04u
M21 U185/net13 U185/net21 U185/net29 VDD pmos W=0.205u L=0.04u
M22 n178 U185/net29 VDD VDD pmos W=0.205u L=0.04u
M23 U185/net13 n181 VDD VDD pmos W=0.205u L=0.04u
M24 U185/net17 n180 VDD VDD pmos W=0.205u L=0.04u
M25 U185/net19 n179 VDD VDD pmos W=0.205u L=0.04u
M26 U185/net21 U185/net25 VDD VDD pmos W=0.205u L=0.04u
M27 U186/XU1-net6 N79 VSS VSS nmos W=0.155u L=0.04u
M28 n181 n182 U186/XU1-net6 VSS nmos W=0.155u L=0.04u
M29 n181 N79 VDD VDD pmos W=0.155u L=0.04u
M30 n181 n182 VDD VDD pmos W=0.155u L=0.04u
M31 U187/net29 U187/net21 U187/net041 VSS nmos W=0.155u L=0.04u
M32 U187/net035 U187/net19 VSS VSS nmos W=0.155u L=0.04u
M33 U187/net041 U187/net13 VSS VSS nmos W=0.155u L=0.04u
M34 U187/net25 n184 U187/net035 VSS nmos W=0.155u L=0.04u
M35 U187/net19 U187/net17 U187/net25 VSS nmos W=0.155u L=0.04u
M36 U187/net13 U187/net25 U187/net29 VSS nmos W=0.155u L=0.04u
M37 N2892 U187/net29 VSS VSS nmos W=0.155u L=0.04u
M38 U187/net13 n185 VSS VSS nmos W=0.155u L=0.04u
M39 U187/net17 n184 VSS VSS nmos W=0.155u L=0.04u
M40 U187/net19 n183 VSS VSS nmos W=0.155u L=0.04u
M41 U187/net21 U187/net25 VSS VSS nmos W=0.155u L=0.04u
M42 U187/net028 U187/net19 VDD VDD pmos W=0.205u L=0.04u
M43 U187/net25 U187/net17 U187/net028 VDD pmos W=0.205u L=0.04u
M44 U187/net29 U187/net25 U187/net029 VDD pmos W=0.205u L=0.04u
M45 U187/net029 U187/net13 VDD VDD pmos W=0.205u L=0.04u
M46 U187/net19 n184 U187/net25 VDD pmos W=0.205u L=0.04u
M47 U187/net13 U187/net21 U187/net29 VDD pmos W=0.205u L=0.04u
M48 N2892 U187/net29 VDD VDD pmos W=0.205u L=0.04u
M49 U187/net13 n185 VDD VDD pmos W=0.205u L=0.04u
M50 U187/net17 n184 VDD VDD pmos W=0.205u L=0.04u
M51 U187/net19 n183 VDD VDD pmos W=0.205u L=0.04u
M52 U187/net21 U187/net25 VDD VDD pmos W=0.205u L=0.04u
M53 U188/XU1-net6 n187 VSS VSS nmos W=0.155u L=0.04u
M54 n185 n186 U188/XU1-net6 VSS nmos W=0.155u L=0.04u
M55 n185 n187 VDD VDD pmos W=0.155u L=0.04u
M56 n185 n186 VDD VDD pmos W=0.155u L=0.04u
M57 n184 N104 U189/net27 VSS nmos W=0.155u L=0.04u
M58 U189/net27 n188 VSS VSS nmos W=0.155u L=0.04u
M59 n184 n189 VSS VSS nmos W=0.155u L=0.04u
M60 n184 n188 U189/net13 VDD pmos W=0.205u L=0.04u
M61 U189/net13 n189 VDD VDD pmos W=0.205u L=0.04u
M62 n184 N104 U189/net13 VDD pmos W=0.205u L=0.04u
M63 n183 n189 VSS VSS nmos W=0.155u L=0.04u
M64 n183 n190 VSS VSS nmos W=0.155u L=0.04u
M65 U190/XI1-net8 n190 VDD VDD pmos W=0.205u L=0.04u
M66 n183 n189 U190/XI1-net8 VDD pmos W=0.205u L=0.04u
M67 U191/net4 U191/net10 U191/net14 VSS nmos W=0.155u L=0.04u
M68 U191/net6 n191 U191/net14 VSS nmos W=0.155u L=0.04u
M69 U191/net4 n192 VSS VSS nmos W=0.155u L=0.04u
M70 U191/net6 U191/net4 VSS VSS nmos W=0.155u L=0.04u
M71 n190 U191/net14 VSS VSS nmos W=0.155u L=0.04u
M72 U191/net10 n191 VSS VSS nmos W=0.155u L=0.04u
M73 U191/net4 n191 U191/net14 VDD pmos W=0.205u L=0.04u
M74 U191/net6 U191/net10 U191/net14 VDD pmos W=0.205u L=0.04u
M75 U191/net4 n192 VDD VDD pmos W=0.205u L=0.04u
M76 U191/net6 U191/net4 VDD VDD pmos W=0.205u L=0.04u
M77 n190 U191/net14 VDD VDD pmos W=0.205u L=0.04u
M78 U191/net10 n191 VDD VDD pmos W=0.205u L=0.04u
M79 n189 n187 VSS VSS nmos W=0.155u L=0.04u
M80 n189 N91 VSS VSS nmos W=0.155u L=0.04u
M81 U192/XI1-net8 N91 VDD VDD pmos W=0.205u L=0.04u
M82 n189 n187 U192/XI1-net8 VDD pmos W=0.205u L=0.04u
M83 U193/net29 U193/net21 U193/net041 VSS nmos W=0.155u L=0.04u
M84 U193/net035 U193/net19 VSS VSS nmos W=0.155u L=0.04u
M85 U193/net041 U193/net13 VSS VSS nmos W=0.155u L=0.04u
M86 U193/net25 n194 U193/net035 VSS nmos W=0.155u L=0.04u
M87 U193/net19 U193/net17 U193/net25 VSS nmos W=0.155u L=0.04u
M88 U193/net13 U193/net25 U193/net29 VSS nmos W=0.155u L=0.04u
M89 N2891 U193/net29 VSS VSS nmos W=0.155u L=0.04u
M90 U193/net13 n195 VSS VSS nmos W=0.155u L=0.04u
M91 U193/net17 n194 VSS VSS nmos W=0.155u L=0.04u
M92 U193/net19 n193 VSS VSS nmos W=0.155u L=0.04u
M93 U193/net21 U193/net25 VSS VSS nmos W=0.155u L=0.04u
M94 U193/net028 U193/net19 VDD VDD pmos W=0.205u L=0.04u
M95 U193/net25 U193/net17 U193/net028 VDD pmos W=0.205u L=0.04u
M96 U193/net29 U193/net25 U193/net029 VDD pmos W=0.205u L=0.04u
M97 U193/net029 U193/net13 VDD VDD pmos W=0.205u L=0.04u
M98 U193/net19 n194 U193/net25 VDD pmos W=0.205u L=0.04u
M99 U193/net13 U193/net21 U193/net29 VDD pmos W=0.205u L=0.04u
M100 N2891 U193/net29 VDD VDD pmos W=0.205u L=0.04u
M101 U193/net13 n195 VDD VDD pmos W=0.205u L=0.04u
M102 U193/net17 n194 VDD VDD pmos W=0.205u L=0.04u
M103 U193/net19 n193 VDD VDD pmos W=0.205u L=0.04u
M104 U193/net21 U193/net25 VDD VDD pmos W=0.205u L=0.04u
M105 U194/XU1-net6 n196 VSS VSS nmos W=0.155u L=0.04u
M106 n195 n187 U194/XU1-net6 VSS nmos W=0.155u L=0.04u
M107 n195 n196 VDD VDD pmos W=0.155u L=0.04u
M108 n195 n187 VDD VDD pmos W=0.155u L=0.04u
M109 n194 n197 U195/net15 VSS nmos W=0.155u L=0.04u
M110 n194 n198 U195/net15 VSS nmos W=0.155u L=0.04u
M111 U195/net15 N104 VSS VSS nmos W=0.155u L=0.04u
M112 n194 N104 VDD VDD pmos W=0.205u L=0.04u
M113 n194 n197 U195/XI16-net11 VDD pmos W=0.205u L=0.04u
M114 U195/XI16-net11 n198 VDD VDD pmos W=0.205u L=0.04u
M115 n193 N104 U196/net27 VSS nmos W=0.155u L=0.04u
M116 U196/net27 n198 VSS VSS nmos W=0.155u L=0.04u
M117 n193 n199 VSS VSS nmos W=0.155u L=0.04u
M118 n193 n198 U196/net13 VDD pmos W=0.205u L=0.04u
M119 U196/net13 n199 VDD VDD pmos W=0.205u L=0.04u
M120 n193 N104 U196/net13 VDD pmos W=0.205u L=0.04u
M121 n198 N88 VSS VSS nmos W=0.135u L=0.04u
M122 n198 N88 VDD VDD pmos W=0.205u L=0.04u
M123 N2890 n177 VSS VSS nmos W=0.155u L=0.04u
M124 N2890 n200 VSS VSS nmos W=0.155u L=0.04u
M125 U198/XI1-net8 n200 VDD VDD pmos W=0.205u L=0.04u
M126 N2890 n177 U198/XI1-net8 VDD pmos W=0.205u L=0.04u
M127 U199/net4 U199/net10 U199/net14 VSS nmos W=0.155u L=0.04u
M128 U199/net6 n201 U199/net14 VSS nmos W=0.155u L=0.04u
M129 U199/net4 n202 VSS VSS nmos W=0.155u L=0.04u
M130 U199/net6 U199/net4 VSS VSS nmos W=0.155u L=0.04u
M131 n200 U199/net14 VSS VSS nmos W=0.155u L=0.04u
M132 U199/net10 n201 VSS VSS nmos W=0.155u L=0.04u
M133 U199/net4 n201 U199/net14 VDD pmos W=0.205u L=0.04u
M134 U199/net6 U199/net10 U199/net14 VDD pmos W=0.205u L=0.04u
M135 U199/net4 n202 VDD VDD pmos W=0.205u L=0.04u
M136 U199/net6 U199/net4 VDD VDD pmos W=0.205u L=0.04u
M137 n200 U199/net14 VDD VDD pmos W=0.205u L=0.04u
M138 U199/net10 n201 VDD VDD pmos W=0.205u L=0.04u
M139 U200/XU1-net6 n203 VSS VSS nmos W=0.155u L=0.04u
M140 n202 n182 U200/XU1-net6 VSS nmos W=0.155u L=0.04u
M141 n202 n203 VDD VDD pmos W=0.155u L=0.04u
M142 n202 n182 VDD VDD pmos W=0.155u L=0.04u
M143 N2889 n177 VSS VSS nmos W=0.155u L=0.04u
M144 N2889 n204 VSS VSS nmos W=0.155u L=0.04u
M145 U201/XI1-net8 n204 VDD VDD pmos W=0.205u L=0.04u
M146 N2889 n177 U201/XI1-net8 VDD pmos W=0.205u L=0.04u
M147 U202/net4 U202/net10 U202/net14 VSS nmos W=0.155u L=0.04u
M148 U202/net6 n205 U202/net14 VSS nmos W=0.155u L=0.04u
M149 U202/net4 n206 VSS VSS nmos W=0.155u L=0.04u
M150 U202/net6 U202/net4 VSS VSS nmos W=0.155u L=0.04u
M151 n204 U202/net14 VSS VSS nmos W=0.155u L=0.04u
M152 U202/net10 n205 VSS VSS nmos W=0.155u L=0.04u
M153 U202/net4 n205 U202/net14 VDD pmos W=0.205u L=0.04u
M154 U202/net6 U202/net10 U202/net14 VDD pmos W=0.205u L=0.04u
M155 U202/net4 n206 VDD VDD pmos W=0.205u L=0.04u
M156 U202/net6 U202/net4 VDD VDD pmos W=0.205u L=0.04u
M157 n204 U202/net14 VDD VDD pmos W=0.205u L=0.04u
M158 U202/net10 n205 VDD VDD pmos W=0.205u L=0.04u
M159 U203/XU1-net6 N85 VSS VSS nmos W=0.155u L=0.04u
M160 n206 n182 U203/XU1-net6 VSS nmos W=0.155u L=0.04u
M161 n206 N85 VDD VDD pmos W=0.155u L=0.04u
M162 n206 n182 VDD VDD pmos W=0.155u L=0.04u
M163 N2888 n177 VSS VSS nmos W=0.155u L=0.04u
M164 N2888 n207 VSS VSS nmos W=0.155u L=0.04u
M165 U204/XI1-net8 n207 VDD VDD pmos W=0.205u L=0.04u
M166 N2888 n177 U204/XI1-net8 VDD pmos W=0.205u L=0.04u
M167 U205/net4 U205/net10 U205/net14 VSS nmos W=0.155u L=0.04u
M168 U205/net6 n208 U205/net14 VSS nmos W=0.155u L=0.04u
M169 U205/net4 n209 VSS VSS nmos W=0.155u L=0.04u
M170 U205/net6 U205/net4 VSS VSS nmos W=0.155u L=0.04u
M171 n207 U205/net14 VSS VSS nmos W=0.155u L=0.04u
M172 U205/net10 n208 VSS VSS nmos W=0.155u L=0.04u
M173 U205/net4 n208 U205/net14 VDD pmos W=0.205u L=0.04u
M174 U205/net6 U205/net10 U205/net14 VDD pmos W=0.205u L=0.04u
M175 U205/net4 n209 VDD VDD pmos W=0.205u L=0.04u
M176 U205/net6 U205/net4 VDD VDD pmos W=0.205u L=0.04u
M177 n207 U205/net14 VDD VDD pmos W=0.205u L=0.04u
M178 U205/net10 n208 VDD VDD pmos W=0.205u L=0.04u
M179 U206/XU1-net6 N82 VSS VSS nmos W=0.155u L=0.04u
M180 n209 n182 U206/XU1-net6 VSS nmos W=0.155u L=0.04u
M181 n209 N82 VDD VDD pmos W=0.155u L=0.04u
M182 n209 n182 VDD VDD pmos W=0.155u L=0.04u
M183 N2887 n177 VSS VSS nmos W=0.155u L=0.04u
M184 N2887 n210 VSS VSS nmos W=0.155u L=0.04u
M185 U207/XI1-net8 n210 VDD VDD pmos W=0.205u L=0.04u
M186 N2887 n177 U207/XI1-net8 VDD pmos W=0.205u L=0.04u
M187 U208/net4 U208/net10 U208/net14 VSS nmos W=0.155u L=0.04u
M188 U208/net6 n211 U208/net14 VSS nmos W=0.155u L=0.04u
M189 U208/net4 n212 VSS VSS nmos W=0.155u L=0.04u
M190 U208/net6 U208/net4 VSS VSS nmos W=0.155u L=0.04u
M191 n210 U208/net14 VSS VSS nmos W=0.155u L=0.04u
M192 U208/net10 n211 VSS VSS nmos W=0.155u L=0.04u
M193 U208/net4 n211 U208/net14 VDD pmos W=0.205u L=0.04u
M194 U208/net6 U208/net10 U208/net14 VDD pmos W=0.205u L=0.04u
M195 U208/net4 n212 VDD VDD pmos W=0.205u L=0.04u
M196 U208/net6 U208/net4 VDD VDD pmos W=0.205u L=0.04u
M197 n210 U208/net14 VDD VDD pmos W=0.205u L=0.04u
M198 U208/net10 n211 VDD VDD pmos W=0.205u L=0.04u
M199 U209/XU1-net6 N76 VSS VSS nmos W=0.155u L=0.04u
M200 n212 n182 U209/XU1-net6 VSS nmos W=0.155u L=0.04u
M201 n212 N76 VDD VDD pmos W=0.155u L=0.04u
M202 n212 n182 VDD VDD pmos W=0.155u L=0.04u
M203 N2886 n177 VSS VSS nmos W=0.155u L=0.04u
M204 N2886 n213 VSS VSS nmos W=0.155u L=0.04u
M205 U210/XI1-net8 n213 VDD VDD pmos W=0.205u L=0.04u
M206 N2886 n177 U210/XI1-net8 VDD pmos W=0.205u L=0.04u
M207 U211/net4 U211/net10 U211/net14 VSS nmos W=0.155u L=0.04u
M208 U211/net6 n214 U211/net14 VSS nmos W=0.155u L=0.04u
M209 U211/net4 n215 VSS VSS nmos W=0.155u L=0.04u
M210 U211/net6 U211/net4 VSS VSS nmos W=0.155u L=0.04u
M211 n213 U211/net14 VSS VSS nmos W=0.155u L=0.04u
M212 U211/net10 n214 VSS VSS nmos W=0.155u L=0.04u
M213 U211/net4 n214 U211/net14 VDD pmos W=0.205u L=0.04u
M214 U211/net6 U211/net10 U211/net14 VDD pmos W=0.205u L=0.04u
M215 U211/net4 n215 VDD VDD pmos W=0.205u L=0.04u
M216 U211/net6 U211/net4 VDD VDD pmos W=0.205u L=0.04u
M217 n213 U211/net14 VDD VDD pmos W=0.205u L=0.04u
M218 U211/net10 n214 VDD VDD pmos W=0.205u L=0.04u
M219 U212/XU1-net6 n216 VSS VSS nmos W=0.155u L=0.04u
M220 n215 n182 U212/XU1-net6 VSS nmos W=0.155u L=0.04u
M221 n215 n216 VDD VDD pmos W=0.155u L=0.04u
M222 n215 n182 VDD VDD pmos W=0.155u L=0.04u
M223 n182 n217 VSS VSS nmos W=0.155u L=0.04u
M224 n182 n218 VSS VSS nmos W=0.155u L=0.04u
M225 U213/XI1-net8 n218 VDD VDD pmos W=0.205u L=0.04u
M226 n182 n217 U213/XI1-net8 VDD pmos W=0.205u L=0.04u
M227 n177 n187 VSS VSS nmos W=0.155u L=0.04u
M228 n177 N99 VSS VSS nmos W=0.155u L=0.04u
M229 U214/XI1-net8 N99 VDD VDD pmos W=0.205u L=0.04u
M230 n177 n187 U214/XI1-net8 VDD pmos W=0.205u L=0.04u
M231 U215/p2 n187 VSS VSS nmos W=0.155u L=0.04u
M232 U215/p0 n219 U215/p1 VSS nmos W=0.155u L=0.04u
M233 U215/p1 n220 U215/p2 VSS nmos W=0.155u L=0.04u
M234 N2811 n218 U215/p0 VSS nmos W=0.155u L=0.04u
M235 N2811 n220 VDD VDD pmos W=0.205u L=0.04u
M236 N2811 n219 VDD VDD pmos W=0.205u L=0.04u
M237 N2811 n218 VDD VDD pmos W=0.205u L=0.04u
M238 N2811 n187 VDD VDD pmos W=0.205u L=0.04u
M239 U216/net20 n221 VSS VSS nmos W=0.155u L=0.04u
M240 n220 n224 U216/p0 VSS nmos W=0.155u L=0.04u
M241 U216/p2 U216/net20 VSS VSS nmos W=0.155u L=0.04u
M242 U216/p1 n222 U216/p2 VSS nmos W=0.155u L=0.04u
M243 U216/p0 n223 U216/p1 VSS nmos W=0.155u L=0.04u
M244 U216/net20 n221 VDD VDD pmos W=0.205u L=0.04u
M245 n220 n222 VDD VDD pmos W=0.205u L=0.04u
M246 n220 n224 VDD VDD pmos W=0.205u L=0.04u
M247 n220 n223 VDD VDD pmos W=0.205u L=0.04u
M248 n220 U216/net20 VDD VDD pmos W=0.205u L=0.04u
M249 n224 n225 U217/net10 VSS nmos W=0.155u L=0.04u
M250 U217/net10 n228 VSS VSS nmos W=0.155u L=0.04u
M251 n224 n226 U217/net10 VSS nmos W=0.155u L=0.04u
M252 U217/net10 n227 VSS VSS nmos W=0.155u L=0.04u
M253 U217/net30 n228 VDD VDD pmos W=0.205u L=0.04u
M254 n224 n225 U217/net24 VDD pmos W=0.205u L=0.04u
M255 U217/net24 n226 VDD VDD pmos W=0.205u L=0.04u
M256 n224 n227 U217/net30 VDD pmos W=0.205u L=0.04u
M257 n227 n229 VSS VSS nmos W=0.155u L=0.04u
M258 n227 n230 VSS VSS nmos W=0.155u L=0.04u
M259 U218/XI1-net8 n230 VDD VDD pmos W=0.205u L=0.04u
M260 n227 n229 U218/XI1-net8 VDD pmos W=0.205u L=0.04u
M261 n225 n231 VSS VSS nmos W=0.155u L=0.04u
M262 n225 n232 VSS VSS nmos W=0.155u L=0.04u
M263 U219/XI1-net8 n232 VDD VDD pmos W=0.205u L=0.04u
M264 n225 n231 U219/XI1-net8 VDD pmos W=0.205u L=0.04u
M265 n219 n233 U220/XI0-net10 VSS nmos W=0.155u L=0.04u
M266 U220/XI0-net10 n234 U220/XI0-net13 VSS nmos W=0.155u L=0.04u
M267 U220/XI0-net13 n235 VSS VSS nmos W=0.155u L=0.04u
M268 n219 n235 VDD VDD pmos W=0.205u L=0.04u
M269 n219 n233 VDD VDD pmos W=0.205u L=0.04u
M270 n219 n234 VDD VDD pmos W=0.205u L=0.04u
M271 U221/net8 n223 U221/net26 VSS nmos W=0.155u L=0.04u
M272 U221/net26 n222 VSS VSS nmos W=0.155u L=0.04u
M273 U221/net29 U221/net8 VSS VSS nmos W=0.155u L=0.04u
M274 U221/net29 n236 n234 VSS nmos W=0.155u L=0.04u
M275 U221/net29 n221 n234 VSS nmos W=0.155u L=0.04u
M276 U221/net8 n222 VDD VDD pmos W=0.205u L=0.04u
M277 U221/net8 n223 VDD VDD pmos W=0.205u L=0.04u
M278 n234 U221/net8 VDD VDD pmos W=0.205u L=0.04u
M279 n234 n236 U221/net20 VDD pmos W=0.205u L=0.04u
M280 U221/net20 n221 VDD VDD pmos W=0.205u L=0.04u
M281 U222/net29 n238 VSS VSS nmos W=0.155u L=0.04u
M282 n236 n222 U222/net29 VSS nmos W=0.155u L=0.04u
M283 n236 n223 U222/net23 VSS nmos W=0.155u L=0.04u
M284 U222/net23 n237 VSS VSS nmos W=0.155u L=0.04u
M285 U222/net20 n237 n236 VDD pmos W=0.205u L=0.04u
M286 U222/net20 n223 n236 VDD pmos W=0.205u L=0.04u
M287 VDD n222 U222/net20 VDD pmos W=0.205u L=0.04u
M288 VDD n238 U222/net20 VDD pmos W=0.205u L=0.04u
M289 U223/XU1-net6 n240 VSS VSS nmos W=0.155u L=0.04u
M290 n238 n239 U223/XU1-net6 VSS nmos W=0.155u L=0.04u
M291 n238 n240 VDD VDD pmos W=0.155u L=0.04u
M292 n238 n239 VDD VDD pmos W=0.155u L=0.04u
M293 U224/XU1-net6 n242 VSS VSS nmos W=0.155u L=0.04u
M294 n237 n241 U224/XU1-net6 VSS nmos W=0.155u L=0.04u
M295 n237 n242 VDD VDD pmos W=0.155u L=0.04u
M296 n237 n241 VDD VDD pmos W=0.155u L=0.04u
M297 n218 n186 VSS VSS nmos W=0.155u L=0.04u
M298 n218 n196 VSS VSS nmos W=0.155u L=0.04u
M299 U225/XI1-net8 n196 VDD VDD pmos W=0.205u L=0.04u
M300 n218 n186 U225/XI1-net8 VDD pmos W=0.205u L=0.04u
M301 U226/p2 n246 VSS VSS nmos W=0.155u L=0.04u
M302 U226/p0 n244 U226/p1 VSS nmos W=0.155u L=0.04u
M303 U226/p1 n245 U226/p2 VSS nmos W=0.155u L=0.04u
M304 n196 n243 U226/p0 VSS nmos W=0.155u L=0.04u
M305 n196 n245 VDD VDD pmos W=0.205u L=0.04u
M306 n196 n244 VDD VDD pmos W=0.205u L=0.04u
M307 n196 n243 VDD VDD pmos W=0.205u L=0.04u
M308 n196 n246 VDD VDD pmos W=0.205u L=0.04u
M309 n246 n250 VSS VSS nmos W=0.155u L=0.04u
M310 n246 n249 VSS VSS nmos W=0.155u L=0.04u
M311 n246 n248 VSS VSS nmos W=0.155u L=0.04u
M312 n246 n247 VSS VSS nmos W=0.155u L=0.04u
M313 U227/net49 n249 U227/net52 VDD pmos W=0.41u L=0.04u
M314 U227/net52 n250 VDD VDD pmos W=0.41u L=0.04u
M315 U227/net46 n248 U227/net49 VDD pmos W=0.41u L=0.04u
M316 n246 n247 U227/net46 VDD pmos W=0.41u L=0.04u
M317 n245 n252 VSS VSS nmos W=0.155u L=0.04u
M318 n245 U228/net4 VSS VSS nmos W=0.155u L=0.04u
M319 U228/net4 n251 VSS VSS nmos W=0.155u L=0.04u
M320 U228/XU1-net8 U228/net4 VDD VDD pmos W=0.205u L=0.04u
M321 n245 n252 U228/XU1-net8 VDD pmos W=0.205u L=0.04u
M322 U228/net4 n251 VDD VDD pmos W=0.205u L=0.04u
M323 U229/p2 n256 VSS VSS nmos W=0.155u L=0.04u
M324 U229/p0 n254 U229/p1 VSS nmos W=0.155u L=0.04u
M325 U229/p1 n255 U229/p2 VSS nmos W=0.155u L=0.04u
M326 n186 n253 U229/p0 VSS nmos W=0.155u L=0.04u
M327 n186 n255 VDD VDD pmos W=0.205u L=0.04u
M328 n186 n254 VDD VDD pmos W=0.205u L=0.04u
M329 n186 n253 VDD VDD pmos W=0.205u L=0.04u
M330 n186 n256 VDD VDD pmos W=0.205u L=0.04u
M331 n256 n260 VSS VSS nmos W=0.155u L=0.04u
M332 n256 n259 VSS VSS nmos W=0.155u L=0.04u
M333 n256 n258 VSS VSS nmos W=0.155u L=0.04u
M334 n256 n257 VSS VSS nmos W=0.155u L=0.04u
M335 U230/net49 n259 U230/net52 VDD pmos W=0.41u L=0.04u
M336 U230/net52 n260 VDD VDD pmos W=0.41u L=0.04u
M337 U230/net46 n258 U230/net49 VDD pmos W=0.41u L=0.04u
M338 n256 n257 U230/net46 VDD pmos W=0.41u L=0.04u
M339 n255 n262 VSS VSS nmos W=0.155u L=0.04u
M340 n255 U231/net4 VSS VSS nmos W=0.155u L=0.04u
M341 U231/net4 n261 VSS VSS nmos W=0.155u L=0.04u
M342 U231/XU1-net8 U231/net4 VDD VDD pmos W=0.205u L=0.04u
M343 n255 n262 U231/XU1-net8 VDD pmos W=0.205u L=0.04u
M344 U231/net4 n261 VDD VDD pmos W=0.205u L=0.04u
M345 U232/net4 N40 U232/net14 VSS nmos W=0.155u L=0.04u
M346 U232/net6 U232/net10 U232/net14 VSS nmos W=0.17u L=0.04u
M347 U232/net4 n254 VSS VSS nmos W=0.155u L=0.04u
M348 U232/net6 U232/net4 VSS VSS nmos W=0.17u L=0.04u
M349 N2787 U232/net14 VSS VSS nmos W=0.155u L=0.04u
M350 U232/net10 N40 VSS VSS nmos W=0.155u L=0.04u
M351 U232/net4 U232/net10 U232/net14 VDD pmos W=0.255u L=0.04u
M352 U232/net6 N40 U232/net14 VDD pmos W=0.28u L=0.04u
M353 U232/net4 n254 VDD VDD pmos W=0.205u L=0.04u
M354 U232/net6 U232/net4 VDD VDD pmos W=0.24u L=0.04u
M355 N2787 U232/net14 VDD VDD pmos W=0.205u L=0.04u
M356 U232/net10 N40 VDD VDD pmos W=0.205u L=0.04u
M357 n254 n230 U233/XI0-net10 VSS nmos W=0.155u L=0.04u
M358 U233/XI0-net10 n263 U233/XI0-net13 VSS nmos W=0.155u L=0.04u
M359 U233/XI0-net13 n231 VSS VSS nmos W=0.155u L=0.04u
M360 n254 n231 VDD VDD pmos W=0.205u L=0.04u
M361 n254 n230 VDD VDD pmos W=0.205u L=0.04u
M362 n254 n263 VDD VDD pmos W=0.205u L=0.04u
M363 U234/net4 U234/net10 U234/net14 VSS nmos W=0.155u L=0.04u
M364 U234/net6 N37 U234/net14 VSS nmos W=0.155u L=0.04u
M365 U234/net4 n260 VSS VSS nmos W=0.155u L=0.04u
M366 U234/net6 U234/net4 VSS VSS nmos W=0.155u L=0.04u
M367 N2786 U234/net14 VSS VSS nmos W=0.155u L=0.04u
M368 U234/net10 N37 VSS VSS nmos W=0.155u L=0.04u
M369 U234/net4 N37 U234/net14 VDD pmos W=0.205u L=0.04u
M370 U234/net6 U234/net10 U234/net14 VDD pmos W=0.205u L=0.04u
M371 U234/net4 n260 VDD VDD pmos W=0.205u L=0.04u
M372 U234/net6 U234/net4 VDD VDD pmos W=0.205u L=0.04u
M373 N2786 U234/net14 VDD VDD pmos W=0.205u L=0.04u
M374 U234/net10 N37 VDD VDD pmos W=0.205u L=0.04u
M375 n260 U235/net6 VSS VSS nmos W=0.155u L=0.04u
M376 U235/net6 n233 U235/XU30-net23 VSS nmos W=0.155u L=0.04u
M377 U235/XU30-net23 n263 U235/XU30-net26 VSS nmos W=0.155u L=0.04u
M378 U235/XU30-net26 n264 U235/XU30-net29 VSS nmos W=0.155u L=0.04u
M379 U235/XU30-net29 n265 VSS VSS nmos W=0.155u L=0.04u
M380 n260 U235/net6 VDD VDD pmos W=0.205u L=0.04u
M381 U235/net6 n265 VDD VDD pmos W=0.205u L=0.04u
M382 U235/net6 n264 VDD VDD pmos W=0.205u L=0.04u
M383 U235/net6 n263 VDD VDD pmos W=0.205u L=0.04u
M384 U235/net6 n233 VDD VDD pmos W=0.205u L=0.04u
M385 U236/net4 U236/net10 U236/net14 VSS nmos W=0.155u L=0.04u
M386 U236/net6 N34 U236/net14 VSS nmos W=0.155u L=0.04u
M387 U236/net4 n259 VSS VSS nmos W=0.155u L=0.04u
M388 U236/net6 U236/net4 VSS VSS nmos W=0.155u L=0.04u
M389 N2785 U236/net14 VSS VSS nmos W=0.155u L=0.04u
M390 U236/net10 N34 VSS VSS nmos W=0.155u L=0.04u
M391 U236/net4 N34 U236/net14 VDD pmos W=0.205u L=0.04u
M392 U236/net6 U236/net10 U236/net14 VDD pmos W=0.205u L=0.04u
M393 U236/net4 n259 VDD VDD pmos W=0.205u L=0.04u
M394 U236/net6 U236/net4 VDD VDD pmos W=0.205u L=0.04u
M395 N2785 U236/net14 VDD VDD pmos W=0.205u L=0.04u
M396 U236/net10 N34 VDD VDD pmos W=0.205u L=0.04u
M397 U237/net7 n263 U237/X_u4-net10 VSS nmos W=0.155u L=0.04u
M398 U237/X_u4-net10 n232 U237/X_u4-net13 VSS nmos W=0.155u L=0.04u
M399 U237/X_u4-net13 n229 VSS VSS nmos W=0.155u L=0.04u
M400 n259 U237/net7 VSS VSS nmos W=0.155u L=0.04u
M401 U237/net7 n229 VDD VDD pmos W=0.205u L=0.04u
M402 U237/net7 n263 VDD VDD pmos W=0.205u L=0.04u
M403 U237/net7 n232 VDD VDD pmos W=0.205u L=0.04u
M404 n259 U237/net7 VDD VDD pmos W=0.205u L=0.04u
M405 U238/net4 U238/net10 U238/net14 VSS nmos W=0.155u L=0.04u
M406 U238/net6 N31 U238/net14 VSS nmos W=0.155u L=0.04u
M407 U238/net4 n258 VSS VSS nmos W=0.155u L=0.04u
M408 U238/net6 U238/net4 VSS VSS nmos W=0.155u L=0.04u
M409 N2784 U238/net14 VSS VSS nmos W=0.155u L=0.04u
M410 U238/net10 N31 VSS VSS nmos W=0.155u L=0.04u
M411 U238/net4 N31 U238/net14 VDD pmos W=0.205u L=0.04u
M412 U238/net6 U238/net10 U238/net14 VDD pmos W=0.205u L=0.04u
M413 U238/net4 n258 VDD VDD pmos W=0.205u L=0.04u
M414 U238/net6 U238/net4 VDD VDD pmos W=0.205u L=0.04u
M415 N2784 U238/net14 VDD VDD pmos W=0.205u L=0.04u
M416 U238/net10 N31 VDD VDD pmos W=0.205u L=0.04u
M417 U239/net7 n263 U239/X_u4-net10 VSS nmos W=0.155u L=0.04u
M418 U239/X_u4-net10 n232 U239/X_u4-net13 VSS nmos W=0.155u L=0.04u
M419 U239/X_u4-net13 n230 VSS VSS nmos W=0.155u L=0.04u
M420 n258 U239/net7 VSS VSS nmos W=0.155u L=0.04u
M421 U239/net7 n230 VDD VDD pmos W=0.205u L=0.04u
M422 U239/net7 n263 VDD VDD pmos W=0.205u L=0.04u
M423 U239/net7 n232 VDD VDD pmos W=0.205u L=0.04u
M424 n258 U239/net7 VDD VDD pmos W=0.205u L=0.04u
M425 n263 U240/net6 VSS VSS nmos W=0.155u L=0.04u
M426 U240/X_u2-net6 n266 VSS VSS nmos W=0.155u L=0.04u
M427 U240/net6 n223 U240/X_u2-net6 VSS nmos W=0.155u L=0.04u
M428 n263 U240/net6 VDD VDD pmos W=0.205u L=0.04u
M429 U240/net6 n266 VDD VDD pmos W=0.205u L=0.04u
M430 U240/net6 n223 VDD VDD pmos W=0.205u L=0.04u
M431 U241/net11 n267 VSS VSS nmos W=0.155u L=0.04u
M432 U241/net11 n268 VSS VSS nmos W=0.155u L=0.04u
M433 n223 n239 VSS VSS nmos W=0.155u L=0.04u
M434 n223 U241/net11 VSS VSS nmos W=0.155u L=0.04u
M435 U241/XI1-net8 n268 VDD VDD pmos W=0.205u L=0.04u
M436 U241/net11 n267 U241/XI1-net8 VDD pmos W=0.205u L=0.04u
M437 U241/XU39-net8 U241/net11 VDD VDD pmos W=0.205u L=0.04u
M438 n223 n239 U241/XU39-net8 VDD pmos W=0.205u L=0.04u
M439 U242/net4 U242/net10 U242/net14 VSS nmos W=0.155u L=0.04u
M440 U242/net6 N25 U242/net14 VSS nmos W=0.155u L=0.04u
M441 U242/net4 n262 VSS VSS nmos W=0.155u L=0.04u
M442 U242/net6 U242/net4 VSS VSS nmos W=0.155u L=0.04u
M443 N2783 U242/net14 VSS VSS nmos W=0.155u L=0.04u
M444 U242/net10 N25 VSS VSS nmos W=0.155u L=0.04u
M445 U242/net4 N25 U242/net14 VDD pmos W=0.205u L=0.04u
M446 U242/net6 U242/net10 U242/net14 VDD pmos W=0.205u L=0.04u
M447 U242/net4 n262 VDD VDD pmos W=0.205u L=0.04u
M448 U242/net6 U242/net4 VDD VDD pmos W=0.205u L=0.04u
M449 N2783 U242/net14 VDD VDD pmos W=0.205u L=0.04u
M450 U242/net10 N25 VDD VDD pmos W=0.205u L=0.04u
M451 n262 U243/net6 VSS VSS nmos W=0.155u L=0.04u
M452 U243/net6 n222 U243/XU30-net23 VSS nmos W=0.155u L=0.04u
M453 U243/XU30-net23 n231 U243/XU30-net26 VSS nmos W=0.155u L=0.04u
M454 U243/XU30-net26 n269 U243/XU30-net29 VSS nmos W=0.155u L=0.04u
M455 U243/XU30-net29 n230 VSS VSS nmos W=0.155u L=0.04u
M456 n262 U243/net6 VDD VDD pmos W=0.205u L=0.04u
M457 U243/net6 n230 VDD VDD pmos W=0.205u L=0.04u
M458 U243/net6 n269 VDD VDD pmos W=0.205u L=0.04u
M459 U243/net6 n231 VDD VDD pmos W=0.205u L=0.04u
M460 U243/net6 n222 VDD VDD pmos W=0.205u L=0.04u
M461 n269 n270 VSS VSS nmos W=0.155u L=0.04u
M462 n269 n240 VSS VSS nmos W=0.155u L=0.04u
M463 U244/XI1-net8 n240 VDD VDD pmos W=0.205u L=0.04u
M464 n269 n270 U244/XI1-net8 VDD pmos W=0.205u L=0.04u
M465 U245/net14 N91 U245/net20 VSS nmos W=0.155u L=0.04u
M466 U245/net14 n271 U245/net20 VSS nmos W=0.155u L=0.04u
M467 U245/net20 n221 VSS VSS nmos W=0.155u L=0.04u
M468 n270 U245/net14 VSS VSS nmos W=0.155u L=0.04u
M469 n270 U245/net14 VDD VDD pmos W=0.205u L=0.04u
M470 U245/net14 n221 VDD VDD pmos W=0.205u L=0.04u
M471 U245/net24 N91 VDD VDD pmos W=0.205u L=0.04u
M472 U245/net14 n271 U245/net24 VDD pmos W=0.205u L=0.04u
M473 U246/net4 U246/net10 U246/net14 VSS nmos W=0.155u L=0.04u
M474 U246/net6 N22 U246/net14 VSS nmos W=0.155u L=0.04u
M475 U246/net4 n252 VSS VSS nmos W=0.155u L=0.04u
M476 U246/net6 U246/net4 VSS VSS nmos W=0.155u L=0.04u
M477 N2782 U246/net14 VSS VSS nmos W=0.155u L=0.04u
M478 U246/net10 N22 VSS VSS nmos W=0.155u L=0.04u
M479 U246/net4 N22 U246/net14 VDD pmos W=0.205u L=0.04u
M480 U246/net6 U246/net10 U246/net14 VDD pmos W=0.205u L=0.04u
M481 U246/net4 n252 VDD VDD pmos W=0.205u L=0.04u
M482 U246/net6 U246/net4 VDD VDD pmos W=0.205u L=0.04u
M483 N2782 U246/net14 VDD VDD pmos W=0.205u L=0.04u
M484 U246/net10 N22 VDD VDD pmos W=0.205u L=0.04u
M485 n252 U247/net6 VSS VSS nmos W=0.155u L=0.04u
M486 U247/net6 n235 U247/XU30-net23 VSS nmos W=0.155u L=0.04u
M487 U247/XU30-net23 n272 U247/XU30-net26 VSS nmos W=0.155u L=0.04u
M488 U247/XU30-net26 n273 U247/XU30-net29 VSS nmos W=0.155u L=0.04u
M489 U247/XU30-net29 n222 VSS VSS nmos W=0.155u L=0.04u
M490 n252 U247/net6 VDD VDD pmos W=0.205u L=0.04u
M491 U247/net6 n222 VDD VDD pmos W=0.205u L=0.04u
M492 U247/net6 n273 VDD VDD pmos W=0.205u L=0.04u
M493 U247/net6 n272 VDD VDD pmos W=0.205u L=0.04u
M494 U247/net6 n235 VDD VDD pmos W=0.205u L=0.04u
M495 U248/net4 n251 U248/net14 VSS nmos W=0.155u L=0.04u
M496 U248/net6 U248/net10 U248/net14 VSS nmos W=0.17u L=0.04u
M497 U248/net4 N19 VSS VSS nmos W=0.155u L=0.04u
M498 U248/net6 U248/net4 VSS VSS nmos W=0.17u L=0.04u
M499 N2781 U248/net14 VSS VSS nmos W=0.155u L=0.04u
M500 U248/net10 n251 VSS VSS nmos W=0.155u L=0.04u
M501 U248/net4 U248/net10 U248/net14 VDD pmos W=0.255u L=0.04u
M502 U248/net6 n251 U248/net14 VDD pmos W=0.28u L=0.04u
M503 U248/net4 N19 VDD VDD pmos W=0.205u L=0.04u
M504 U248/net6 U248/net4 VDD VDD pmos W=0.24u L=0.04u
M505 N2781 U248/net14 VDD VDD pmos W=0.205u L=0.04u
M506 U248/net10 n251 VDD VDD pmos W=0.205u L=0.04u
M507 U249/p2 n233 VSS VSS nmos W=0.155u L=0.04u
M508 U249/p0 n222 U249/p1 VSS nmos W=0.155u L=0.04u
M509 U249/p1 n274 U249/p2 VSS nmos W=0.155u L=0.04u
M510 n251 n272 U249/p0 VSS nmos W=0.155u L=0.04u
M511 n251 n274 VDD VDD pmos W=0.205u L=0.04u
M512 n251 n222 VDD VDD pmos W=0.205u L=0.04u
M513 n251 n272 VDD VDD pmos W=0.205u L=0.04u
M514 n251 n233 VDD VDD pmos W=0.205u L=0.04u
M515 n274 n275 VSS VSS nmos W=0.155u L=0.04u
M516 n274 n276 VSS VSS nmos W=0.155u L=0.04u
M517 U250/XI1-net8 n276 VDD VDD pmos W=0.205u L=0.04u
M518 n274 n275 U250/XI1-net8 VDD pmos W=0.205u L=0.04u
M519 U251/net4 n243 U251/net14 VSS nmos W=0.155u L=0.04u
M520 U251/net6 U251/net10 U251/net14 VSS nmos W=0.17u L=0.04u
M521 U251/net4 N16 VSS VSS nmos W=0.155u L=0.04u
M522 U251/net6 U251/net4 VSS VSS nmos W=0.17u L=0.04u
M523 N2780 U251/net14 VSS VSS nmos W=0.155u L=0.04u
M524 U251/net10 n243 VSS VSS nmos W=0.155u L=0.04u
M525 U251/net4 U251/net10 U251/net14 VDD pmos W=0.255u L=0.04u
M526 U251/net6 n243 U251/net14 VDD pmos W=0.28u L=0.04u
M527 U251/net4 N16 VDD VDD pmos W=0.205u L=0.04u
M528 U251/net6 U251/net4 VDD VDD pmos W=0.24u L=0.04u
M529 N2780 U251/net14 VDD VDD pmos W=0.205u L=0.04u
M530 U251/net10 n243 VDD VDD pmos W=0.205u L=0.04u
M531 U252/XU1-net6 n229 VSS VSS nmos W=0.155u L=0.04u
M532 n243 n277 U252/XU1-net6 VSS nmos W=0.155u L=0.04u
M533 n243 n229 VDD VDD pmos W=0.155u L=0.04u
M534 n243 n277 VDD VDD pmos W=0.155u L=0.04u
M535 U253/net4 n244 U253/net14 VSS nmos W=0.155u L=0.04u
M536 U253/net6 U253/net10 U253/net14 VSS nmos W=0.17u L=0.04u
M537 U253/net4 N13 VSS VSS nmos W=0.155u L=0.04u
M538 U253/net6 U253/net4 VSS VSS nmos W=0.17u L=0.04u
M539 N2779 U253/net14 VSS VSS nmos W=0.155u L=0.04u
M540 U253/net10 n244 VSS VSS nmos W=0.155u L=0.04u
M541 U253/net4 U253/net10 U253/net14 VDD pmos W=0.255u L=0.04u
M542 U253/net6 n244 U253/net14 VDD pmos W=0.28u L=0.04u
M543 U253/net4 N13 VDD VDD pmos W=0.205u L=0.04u
M544 U253/net6 U253/net4 VDD VDD pmos W=0.24u L=0.04u
M545 N2779 U253/net14 VDD VDD pmos W=0.205u L=0.04u
M546 U253/net10 n244 VDD VDD pmos W=0.205u L=0.04u
M547 U254/XU1-net6 n230 VSS VSS nmos W=0.155u L=0.04u
M548 n244 n277 U254/XU1-net6 VSS nmos W=0.155u L=0.04u
M549 n244 n230 VDD VDD pmos W=0.155u L=0.04u
M550 n244 n277 VDD VDD pmos W=0.155u L=0.04u
M551 U255/net7 n222 U255/X_u4-net10 VSS nmos W=0.155u L=0.04u
M552 U255/X_u4-net10 n232 U255/X_u4-net13 VSS nmos W=0.155u L=0.04u
M553 U255/X_u4-net13 n272 VSS VSS nmos W=0.155u L=0.04u
M554 n277 U255/net7 VSS VSS nmos W=0.155u L=0.04u
M555 U255/net7 n272 VDD VDD pmos W=0.205u L=0.04u
M556 U255/net7 n222 VDD VDD pmos W=0.205u L=0.04u
M557 U255/net7 n232 VDD VDD pmos W=0.205u L=0.04u
M558 n277 U255/net7 VDD VDD pmos W=0.205u L=0.04u
M559 U256/net11 n278 VSS VSS nmos W=0.155u L=0.04u
M560 U256/net11 n279 VSS VSS nmos W=0.155u L=0.04u
M561 n222 n241 VSS VSS nmos W=0.155u L=0.04u
M562 n222 U256/net11 VSS VSS nmos W=0.155u L=0.04u
M563 U256/XI1-net8 n279 VDD VDD pmos W=0.205u L=0.04u
M564 U256/net11 n278 U256/XI1-net8 VDD pmos W=0.205u L=0.04u