.SUBCKT c2670 N1 N2 N3 N4 N5 N6 N7 N8 N11 N14 N15 N16 N19 N20 N21 N22 N23 N24 N25 N26 N27 N28 N29 N32 N33 N34 N35 N36 N37 N40 N43 N44 N47 N48 N49 N50 N51 N52 N53 N54 N55 N56 N57 N60 N61 N62 N63 N64 N65 N66 N67 N68 N69 N72 N73 N74 N75 N76 N77 N78 N79 N80 N81 N82 N85 N86 N87 N88 N89 N90 N91 N92 N93 N94 N95 N96 N99 N100 N101 N102 N103 N104 N105 N106 N107 N108 N111 N112 N113 N114 N115 N116 N117 N118 N119 N120 N123 N124 N125 N126 N127 N128 N129 N130 N131 N132 N135 N136 N137 N138 N139 N140 N141 N142 N219 N224 N227 N230 N231 N234 N237 N241 N246 N253 N256 N259 N262 N263 N266 N269 N272 N275 N278 N281 N284 N287 N290 N294 N297 N301 N305 N309 N313 N316 N319 N322 N325 N328 N331 N334 N337 N340 N343 N346 N349 N352 N355 N143_I N144_I N145_I N146_I N147_I N148_I N149_I N150_I N151_I N152_I N153_I N154_I N155_I N156_I N157_I N158_I N159_I N160_I N161_I N162_I N163_I N164_I N165_I N166_I N167_I N168_I N169_I N170_I N171_I N172_I N173_I N174_I N175_I N176_I N177_I N178_I N179_I N180_I N181_I N182_I N183_I N184_I N185_I N186_I N187_I N188_I N189_I N190_I N191_I N192_I N193_I N194_I N195_I N196_I N197_I N198_I N199_I N200_I N201_I N202_I N203_I N204_I N205_I N206_I N207_I N208_I N209_I N210_I N211_I N212_I N213_I N214_I N215_I N216_I N217_I N218_I N487 N488 N489 N490 N491 N492 N493 N494 N792 N799 N1026 N1028 N1029 N1269 N1034 N1448 N1591 N1816 N1817 N1818 N1819 N1820 N1821 N1969 N1970 N1971 N1612 N1615 N1619 N1624 N2018 N1631 N1634 N2266 N2269 N2496 N2521 N2891 N2925 N293 N292 N3038 N3079 N3546 N3671 N3780 N3809 N3840 N3875 N3881 N3882 VDD VSS 
M1 N799 N2 U276/XI0-net10 VSS nmos W=0.155u L=0.04u
M2 U276/XI0-net10 N15 U276/XI0-net13 VSS nmos W=0.155u L=0.04u
M3 U276/XI0-net13 N237 VSS VSS nmos W=0.155u L=0.04u
M4 N799 N237 VDD VDD pmos W=0.205u L=0.04u
M5 N799 N2 VDD VDD pmos W=0.205u L=0.04u
M6 N799 N15 VDD VDD pmos W=0.205u L=0.04u
M7 U277/p2 N297 VSS VSS nmos W=0.155u L=0.04u
M8 U277/p0 N305 U277/p1 VSS nmos W=0.155u L=0.04u
M9 U277/p1 N301 U277/p2 VSS nmos W=0.155u L=0.04u
M10 N792 N309 U277/p0 VSS nmos W=0.155u L=0.04u
M11 N792 N301 VDD VDD pmos W=0.205u L=0.04u
M12 N792 N305 VDD VDD pmos W=0.205u L=0.04u
M13 N792 N309 VDD VDD pmos W=0.205u L=0.04u
M14 N792 N297 VDD VDD pmos W=0.205u L=0.04u
M15 N494 N108 VSS VSS nmos W=0.135u L=0.04u
M16 N494 N108 VDD VDD pmos W=0.205u L=0.04u
M17 N493 N57 VSS VSS nmos W=0.135u L=0.04u
M18 N493 N57 VDD VDD pmos W=0.205u L=0.04u
M19 N492 N120 VSS VSS nmos W=0.135u L=0.04u
M20 N492 N120 VDD VDD pmos W=0.205u L=0.04u
M21 N491 N69 VSS VSS nmos W=0.135u L=0.04u
M22 N491 N69 VDD VDD pmos W=0.205u L=0.04u
M23 N490 N96 VSS VSS nmos W=0.135u L=0.04u
M24 N490 N96 VDD VDD pmos W=0.205u L=0.04u
M25 N489 N82 VSS VSS nmos W=0.135u L=0.04u
M26 N489 N82 VDD VDD pmos W=0.205u L=0.04u
M27 N488 N132 VSS VSS nmos W=0.135u L=0.04u
M28 N488 N132 VDD VDD pmos W=0.205u L=0.04u
M29 N487 N44 VSS VSS nmos W=0.135u L=0.04u
M30 N487 N44 VDD VDD pmos W=0.205u L=0.04u
M31 N3881 N3882 VSS VSS nmos W=0.135u L=0.04u
M32 N3881 N3882 VDD VDD pmos W=0.205u L=0.04u
M33 U287/p2 n259 VSS VSS nmos W=0.155u L=0.04u
M34 U287/p0 n257 U287/p1 VSS nmos W=0.155u L=0.04u
M35 U287/p1 n258 U287/p2 VSS nmos W=0.155u L=0.04u
M36 N3882 n256 U287/p0 VSS nmos W=0.155u L=0.04u
M37 N3882 n258 VDD VDD pmos W=0.205u L=0.04u
M38 N3882 n257 VDD VDD pmos W=0.205u L=0.04u
M39 N3882 n256 VDD VDD pmos W=0.205u L=0.04u
M40 N3882 n259 VDD VDD pmos W=0.205u L=0.04u
M41 n259 N292 VSS VSS nmos W=0.155u L=0.04u
M42 n259 N293 VSS VSS nmos W=0.155u L=0.04u
M43 n259 U288/net12 VSS VSS nmos W=0.155u L=0.04u
M44 U288/net12 N1591 VSS VSS nmos W=0.155u L=0.04u
M45 U288/XU9-net9 U288/net12 VDD VDD pmos W=0.41u L=0.04u
M46 U288/XU9-net12 N293 U288/XU9-net9 VDD pmos W=0.41u L=0.04u
M47 n259 N292 U288/XU9-net12 VDD pmos W=0.41u L=0.04u
M48 U288/net12 N1591 VDD VDD pmos W=0.31u L=0.04u
M49 N3840 n260 U289/net14 VSS nmos W=0.155u L=0.04u
M50 U289/net14 n264 VSS VSS nmos W=0.155u L=0.04u
M51 U289/net14 n263 VSS VSS nmos W=0.155u L=0.04u
M52 N3840 n262 U289/net14 VSS nmos W=0.155u L=0.04u
M53 N3840 n261 U289/net14 VSS nmos W=0.155u L=0.04u
M54 N3840 n264 U289/XI16-net11 VDD pmos W=0.205u L=0.04u
M55 U289/XI16-net11 n263 VDD VDD pmos W=0.205u L=0.04u
M56 N3840 n262 U289/XI15-net11 VDD pmos W=0.205u L=0.04u
M57 U289/XI15-net11 n261 U289/XI15-net18 VDD pmos W=0.205u L=0.04u
M58 U289/XI15-net18 n260 VDD VDD pmos W=0.205u L=0.04u
M59 n263 n265 U290/net23 VDD pmos W=0.205u L=0.04u
M60 n263 n267 U290/net23 VDD pmos W=0.205u L=0.04u
M61 n263 n266 U290/net23 VDD pmos W=0.205u L=0.04u
M62 U290/net23 n268 VDD VDD pmos W=0.205u L=0.04u
M63 U290/net23 n269 VDD VDD pmos W=0.205u L=0.04u
M64 U290/XI20-net13 n267 VSS VSS nmos W=0.155u L=0.04u
M65 n263 n265 U290/XI20-net17 VSS nmos W=0.155u L=0.04u
M66 U290/XI20-net17 n266 U290/XI20-net13 VSS nmos W=0.155u L=0.04u
M67 n263 n268 U290/XI17-net17 VSS nmos W=0.155u L=0.04u
M68 U290/XI17-net17 n269 VSS VSS nmos W=0.155u L=0.04u
M69 n265 n261 VSS VSS nmos W=0.135u L=0.04u
M70 n265 n261 VDD VDD pmos W=0.205u L=0.04u
M71 n262 n270 U292/net23 VDD pmos W=0.205u L=0.04u
M72 n262 n272 U292/net23 VDD pmos W=0.205u L=0.04u
M73 n262 n271 U292/net23 VDD pmos W=0.205u L=0.04u
M74 U292/net23 n273 VDD VDD pmos W=0.205u L=0.04u
M75 U292/net23 n274 VDD VDD pmos W=0.205u L=0.04u
M76 U292/XI20-net13 n272 VSS VSS nmos W=0.155u L=0.04u
M77 n262 n270 U292/XI20-net17 VSS nmos W=0.155u L=0.04u
M78 U292/XI20-net17 n271 U292/XI20-net13 VSS nmos W=0.155u L=0.04u
M79 n262 n273 U292/XI17-net17 VSS nmos W=0.155u L=0.04u
M80 U292/XI17-net17 n274 VSS VSS nmos W=0.155u L=0.04u
M81 n274 n275 U293/net14 VSS nmos W=0.155u L=0.04u
M82 U293/net14 n276 VSS VSS nmos W=0.155u L=0.04u
M83 U293/net14 N284 VSS VSS nmos W=0.155u L=0.04u
M84 n274 N1634 U293/net14 VSS nmos W=0.155u L=0.04u
M85 n274 N281 U293/net14 VSS nmos W=0.155u L=0.04u
M86 n274 n276 U293/XI16-net11 VDD pmos W=0.205u L=0.04u
M87 U293/XI16-net11 N284 VDD VDD pmos W=0.205u L=0.04u
M88 n274 N1634 U293/XI15-net11 VDD pmos W=0.205u L=0.04u
M89 U293/XI15-net11 N281 U293/XI15-net18 VDD pmos W=0.205u L=0.04u
M90 U293/XI15-net18 n275 VDD VDD pmos W=0.205u L=0.04u
M91 n275 n271 VSS VSS nmos W=0.135u L=0.04u
M92 n275 n271 VDD VDD pmos W=0.205u L=0.04u
M93 n272 N281 U295/XI0-net10 VSS nmos W=0.155u L=0.04u
M94 U295/XI0-net10 N1634 U295/XI0-net13 VSS nmos W=0.155u L=0.04u
M95 U295/XI0-net13 n273 VSS VSS nmos W=0.155u L=0.04u
M96 n272 n273 VDD VDD pmos W=0.205u L=0.04u
M97 n272 N281 VDD VDD pmos W=0.205u L=0.04u
M98 n272 N1634 VDD VDD pmos W=0.205u L=0.04u
M99 n271 N284 U296/XI0-net10 VSS nmos W=0.155u L=0.04u
M100 U296/XI0-net10 n276 U296/XI0-net13 VSS nmos W=0.155u L=0.04u
M101 U296/XI0-net13 n273 VSS VSS nmos W=0.155u L=0.04u
M102 n271 n273 VDD VDD pmos W=0.205u L=0.04u
M103 n271 N284 VDD VDD pmos W=0.205u L=0.04u
M104 n271 n276 VDD VDD pmos W=0.205u L=0.04u
M105 n273 n264 VSS VSS nmos W=0.135u L=0.04u
M106 n273 n264 VDD VDD pmos W=0.205u L=0.04u
M107 n270 n277 U298/net14 VSS nmos W=0.155u L=0.04u
M108 U298/net14 n281 VSS VSS nmos W=0.155u L=0.04u
M109 U298/net14 n280 VSS VSS nmos W=0.155u L=0.04u
M110 n270 n279 U298/net14 VSS nmos W=0.155u L=0.04u
M111 n270 n278 U298/net14 VSS nmos W=0.155u L=0.04u
M112 n270 n281 U298/XI16-net11 VDD pmos W=0.205u L=0.04u
M113 U298/XI16-net11 n280 VDD VDD pmos W=0.205u L=0.04u
M114 n270 n279 U298/XI15-net11 VDD pmos W=0.205u L=0.04u
M115 U298/XI15-net11 n278 U298/XI15-net18 VDD pmos W=0.205u L=0.04u
M116 U298/XI15-net18 n277 VDD VDD pmos W=0.205u L=0.04u
M117 U299/net14 N1631 VSS VSS nmos W=0.155u L=0.04u
M118 U299/net14 N278 VSS VSS nmos W=0.155u L=0.04u
M119 U299/net35 n278 U299/net14 VSS nmos W=0.155u L=0.04u
M120 U299/net35 N275 U299/net14 VSS nmos W=0.155u L=0.04u
M121 U299/net35 N2018 U299/net14 VSS nmos W=0.155u L=0.04u
M122 n280 U299/net35 VSS VSS nmos W=0.155u L=0.04u
M123 n280 U299/net35 VDD VDD pmos W=0.205u L=0.04u
M124 U299/net35 N278 U299/XI16-net11 VDD pmos W=0.205u L=0.04u
M125 U299/XI16-net11 N1631 VDD VDD pmos W=0.205u L=0.04u
M126 U299/net35 n278 U299/XI15-net11 VDD pmos W=0.205u L=0.04u
M127 U299/XI15-net11 N275 U299/XI15-net18 VDD pmos W=0.205u L=0.04u
M128 U299/XI15-net18 N2018 VDD VDD pmos W=0.205u L=0.04u
M129 U300/net29 n285 VSS VSS nmos W=0.155u L=0.04u
M130 n279 n284 U300/net29 VSS nmos W=0.155u L=0.04u
M131 n279 n282 U300/net23 VSS nmos W=0.155u L=0.04u
M132 U300/net23 n283 VSS VSS nmos W=0.155u L=0.04u
M133 U300/net20 n283 n279 VDD pmos W=0.205u L=0.04u
M134 U300/net20 n282 n279 VDD pmos W=0.205u L=0.04u
M135 VDD n284 U300/net20 VDD pmos W=0.205u L=0.04u
M136 VDD n285 U300/net20 VDD pmos W=0.205u L=0.04u
M137 n283 U301/net7 VSS VSS nmos W=0.155u L=0.04u
M138 U301/net7 n284 VSS VSS nmos W=0.155u L=0.04u
M139 U301/net7 n285 VSS VSS nmos W=0.155u L=0.04u
M140 n283 U301/net7 VDD VDD pmos W=0.205u L=0.04u
M141 U301/X_u7-net8 n285 VDD VDD pmos W=0.205u L=0.04u
M142 U301/net7 n284 U301/X_u7-net8 VDD pmos W=0.205u L=0.04u
M143 U302/XU1-net6 N1624 VSS VSS nmos W=0.155u L=0.04u
M144 n285 N8 U302/XU1-net6 VSS nmos W=0.155u L=0.04u
M145 n285 N1624 VDD VDD pmos W=0.155u L=0.04u
M146 n285 N8 VDD VDD pmos W=0.155u L=0.04u
M147 n284 N8 U303/net23 VDD pmos W=0.205u L=0.04u
M148 n284 n286 U303/net23 VDD pmos W=0.205u L=0.04u
M149 n284 N1619 U303/net23 VDD pmos W=0.205u L=0.04u
M150 U303/net23 n287 VDD VDD pmos W=0.205u L=0.04u
M151 U303/net23 n288 VDD VDD pmos W=0.205u L=0.04u
M152 U303/XI20-net13 n286 VSS VSS nmos W=0.155u L=0.04u
M153 n284 N8 U303/XI20-net17 VSS nmos W=0.155u L=0.04u
M154 U303/XI20-net17 N1619 U303/XI20-net13 VSS nmos W=0.155u L=0.04u
M155 n284 n287 U303/XI17-net17 VSS nmos W=0.155u L=0.04u
M156 U303/XI17-net17 n288 VSS VSS nmos W=0.155u L=0.04u
M157 n286 U304/net7 VSS VSS nmos W=0.155u L=0.04u
M158 U304/net7 n287 VSS VSS nmos W=0.155u L=0.04u
M159 U304/net7 n288 VSS VSS nmos W=0.155u L=0.04u
M160 n286 U304/net7 VDD VDD pmos W=0.205u L=0.04u
M161 U304/X_u7-net8 n288 VDD VDD pmos W=0.205u L=0.04u
M162 U304/net7 n287 U304/X_u7-net8 VDD pmos W=0.205u L=0.04u
M163 U305/net14 N269 VSS VSS nmos W=0.155u L=0.04u
M164 U305/net14 n281 VSS VSS nmos W=0.155u L=0.04u
M165 U305/net35 n290 U305/net14 VSS nmos W=0.155u L=0.04u
M166 U305/net35 N305 U305/net14 VSS nmos W=0.155u L=0.04u
M167 U305/net35 n289 U305/net14 VSS nmos W=0.155u L=0.04u
M168 n288 U305/net35 VSS VSS nmos W=0.155u L=0.04u
M169 n288 U305/net35 VDD VDD pmos W=0.205u L=0.04u
M170 U305/net35 n281 U305/XI16-net11 VDD pmos W=0.205u L=0.04u
M171 U305/XI16-net11 N269 VDD VDD pmos W=0.205u L=0.04u
M172 U305/net35 n290 U305/XI15-net11 VDD pmos W=0.205u L=0.04u
M173 U305/XI15-net11 N305 U305/XI15-net18 VDD pmos W=0.205u L=0.04u
M174 U305/XI15-net18 n289 VDD VDD pmos W=0.205u L=0.04u
M175 U306/net26 n293 VSS VSS nmos W=0.155u L=0.04u
M176 U306/net26 n291 n287 VSS nmos W=0.155u L=0.04u
M177 U306/net26 n292 n287 VSS nmos W=0.155u L=0.04u
M178 n287 n291 U306/net38 VSS nmos W=0.155u L=0.04u
M179 U306/net38 n292 VSS VSS nmos W=0.155u L=0.04u
M180 U306/net16 n292 VDD VDD pmos W=0.205u L=0.04u
M181 U306/net20 n291 n287 VDD pmos W=0.205u L=0.04u
M182 n287 n291 U306/net16 VDD pmos W=0.205u L=0.04u
M183 U306/net20 n292 n287 VDD pmos W=0.205u L=0.04u
M184 U306/net20 n293 VDD VDD pmos W=0.205u L=0.04u
M185 U307/net17 n297 VSS VSS nmos W=0.155u L=0.04u
M186 U307/net17 n296 VSS VSS nmos W=0.155u L=0.04u
M187 U307/net63 n295 VSS VSS nmos W=0.155u L=0.04u
M188 n293 U307/net17 VSS VSS nmos W=0.155u L=0.04u
M189 n293 n294 U307/net63 VSS nmos W=0.155u L=0.04u
M190 n293 n295 U307/net31 VDD pmos W=0.205u L=0.04u
M191 U307/net39 n297 VDD VDD pmos W=0.195u L=0.04u
M192 U307/net31 U307/net17 VDD VDD pmos W=0.195u L=0.04u
M193 n293 n294 U307/net31 VDD pmos W=0.195u L=0.04u
M194 U307/net17 n296 U307/net39 VDD pmos W=0.195u L=0.04u
M195 U308/XU1-net6 n297 VSS VSS nmos W=0.155u L=0.04u
M196 n295 n296 U308/XU1-net6 VSS nmos W=0.155u L=0.04u
M197 n295 n297 VDD VDD pmos W=0.155u L=0.04u
M198 n295 n296 VDD VDD pmos W=0.155u L=0.04u
M199 n296 n298 U309/net14 VSS nmos W=0.155u L=0.04u
M200 U309/net14 n302 VSS VSS nmos W=0.155u L=0.04u
M201 U309/net14 n301 VSS VSS nmos W=0.155u L=0.04u
M202 n296 n300 U309/net14 VSS nmos W=0.155u L=0.04u
M203 n296 n299 U309/net14 VSS nmos W=0.155u L=0.04u
M204 n296 n302 U309/XI16-net11 VDD pmos W=0.205u L=0.04u
M205 U309/XI16-net11 n301 VDD VDD pmos W=0.205u L=0.04u
M206 n296 n300 U309/XI15-net11 VDD pmos W=0.205u L=0.04u
M207 U309/XI15-net11 n299 U309/XI15-net18 VDD pmos W=0.205u L=0.04u
M208 U309/XI15-net18 n298 VDD VDD pmos W=0.205u L=0.04u
M209 U310/net19 n304 VSS VSS nmos W=0.155u L=0.04u
M210 n302 n304 U310/net40 VSS nmos W=0.155u L=0.04u
M211 n302 U310/net19 U310/net36 VSS nmos W=0.155u L=0.04u
M212 U310/net40 n269 VSS VSS nmos W=0.31u L=0.04u
M213 U310/net36 n303 VSS VSS nmos W=0.155u L=0.04u
M214 U310/net19 n304 VDD VDD pmos W=0.205u L=0.04u
M215 n302 U310/net19 U310/net26 VDD pmos W=0.325u L=0.04u
M216 U310/net26 n269 VDD VDD pmos W=0.41u L=0.04u
M217 n302 n304 U310/net30 VDD pmos W=0.325u L=0.04u
M218 U310/net30 n303 VDD VDD pmos W=0.205u L=0.04u
M219 n299 n305 VSS VSS nmos W=0.155u L=0.04u
M220 n299 n306 VSS VSS nmos W=0.155u L=0.04u
M221 U311/XI1-net8 n306 VDD VDD pmos W=0.205u L=0.04u
M222 n299 n305 U311/XI1-net8 VDD pmos W=0.205u L=0.04u
M223 U312/net19 n304 VSS VSS nmos W=0.155u L=0.04u
M224 n306 n304 U312/net40 VSS nmos W=0.155u L=0.04u
M225 n306 U312/net19 U312/net36 VSS nmos W=0.155u L=0.04u
M226 U312/net40 N294 VSS VSS nmos W=0.31u L=0.04u
M227 U312/net36 N259 VSS VSS nmos W=0.155u L=0.04u
M228 U312/net19 n304 VDD VDD pmos W=0.205u L=0.04u
M229 n306 U312/net19 U312/net26 VDD pmos W=0.325u L=0.04u
M230 U312/net26 N294 VDD VDD pmos W=0.41u L=0.04u
M231 n306 n304 U312/net30 VDD pmos W=0.325u L=0.04u
M232 U312/net30 N259 VDD VDD pmos W=0.205u L=0.04u
M233 U313/net19 n304 VSS VSS nmos W=0.155u L=0.04u
M234 n298 n304 U313/net40 VSS nmos W=0.155u L=0.04u
M235 n298 U313/net19 U313/net36 VSS nmos W=0.155u L=0.04u
M236 U313/net40 n266 VSS VSS nmos W=0.31u L=0.04u
M237 U313/net36 n307 VSS VSS nmos W=0.155u L=0.04u
M238 U313/net19 n304 VDD VDD pmos W=0.205u L=0.04u
M239 n298 U313/net19 U313/net26 VDD pmos W=0.325u L=0.04u
M240 U313/net26 n266 VDD VDD pmos W=0.41u L=0.04u
M241 n298 n304 U313/net30 VDD pmos W=0.325u L=0.04u
M242 U313/net30 n307 VDD VDD pmos W=0.205u L=0.04u
M243 n294 U314/net28 VSS VSS nmos W=0.155u L=0.04u
M244 U314/net47 N297 VSS VSS nmos W=0.155u L=0.04u
M245 U314/net28 U314/net6 U314/net47 VSS nmos W=0.155u L=0.04u
M246 U314/net44 N263 VSS VSS nmos W=0.155u L=0.04u
M247 U314/net28 n289 U314/net44 VSS nmos W=0.155u L=0.04u
M248 U314/net6 n289 VSS VSS nmos W=0.155u L=0.04u
M249 n294 U314/net28 VDD VDD pmos W=0.205u L=0.04u
M250 VDD N297 U314/net47 VDD pmos W=0.205u L=0.04u
M251 U314/net47 n289 U314/net28 VDD pmos W=0.205u L=0.04u
M252 U314/net44 U314/net6 U314/net28 VDD pmos W=0.205u L=0.04u
M253 VDD N263 U314/net44 VDD pmos W=0.205u L=0.04u
M254 VDD n289 U314/net6 VDD pmos W=0.205u L=0.04u
M255 n292 n310 VSS VSS nmos W=0.155u L=0.04u
M256 n292 N52 U315/XI17-net17 VSS nmos W=0.155u L=0.04u
M257 U315/XI17-net17 n309 VSS VSS nmos W=0.155u L=0.04u
M258 n292 N64 U315/XI10-net17 VSS nmos W=0.155u L=0.04u
M259 U315/XI10-net17 n308 VSS VSS nmos W=0.155u L=0.04u
M260 U315/net30 N64 n292 VDD pmos W=0.205u L=0.04u
M261 U315/net30 n308 n292 VDD pmos W=0.205u L=0.04u
M262 VDD n310 U315/net36 VDD pmos W=0.205u L=0.04u
M263 U315/net36 n309 U315/net30 VDD pmos W=0.205u L=0.04u
M264 U315/net36 N52 U315/net30 VDD pmos W=0.205u L=0.04u
M265 U316/net29 n311 VSS VSS nmos W=0.155u L=0.04u
M266 U316/net26 N77 U316/net20 VSS nmos W=0.155u L=0.04u
M267 U316/net20 n312 VSS VSS nmos W=0.155u L=0.04u
M268 U316/net26 N90 U316/net29 VSS nmos W=0.155u L=0.04u
M269 n310 U316/net26 VSS VSS nmos W=0.155u L=0.04u
M270 n310 U316/net26 VDD VDD pmos W=0.205u L=0.04u
M271 U316/net26 N90 U316/net40 VDD pmos W=0.205u L=0.04u
M272 U316/net26 n311 U316/net40 VDD pmos W=0.205u L=0.04u
M273 U316/net40 n312 VDD VDD pmos W=0.205u L=0.04u
M274 U316/net40 N77 VDD VDD pmos W=0.205u L=0.04u
M275 U317/net19 n304 VSS VSS nmos W=0.155u L=0.04u
M276 n291 n304 U317/net40 VSS nmos W=0.155u L=0.04u
M277 n291 U317/net19 U317/net36 VSS nmos W=0.155u L=0.04u
M278 U317/net40 N301 VSS VSS nmos W=0.31u L=0.04u
M279 U317/net36 N266 VSS VSS nmos W=0.155u L=0.04u
M280 U317/net19 n304 VDD VDD pmos W=0.205u L=0.04u
M281 n291 U317/net19 U317/net26 VDD pmos W=0.325u L=0.04u
M282 U317/net26 N301 VDD VDD pmos W=0.41u L=0.04u
M283 n291 n304 U317/net30 VDD pmos W=0.325u L=0.04u
M284 U317/net30 N266 VDD VDD pmos W=0.205u L=0.04u
M285 n304 n289 VSS VSS nmos W=0.135u L=0.04u
M286 n304 n289 VDD VDD pmos W=0.205u L=0.04u
M287 n282 n289 U319/net14 VSS nmos W=0.155u L=0.04u
M288 U319/net14 n281 VSS VSS nmos W=0.155u L=0.04u
M289 U319/net14 N272 VSS VSS nmos W=0.155u L=0.04u
M290 n282 n290 U319/net14 VSS nmos W=0.155u L=0.04u
M291 n282 N309 U319/net14 VSS nmos W=0.155u L=0.04u
M292 n282 n281 U319/XI16-net11 VDD pmos W=0.205u L=0.04u
M293 U319/XI16-net11 N272 VDD VDD pmos W=0.205u L=0.04u
M294 n282 n290 U319/XI15-net11 VDD pmos W=0.205u L=0.04u
M295 U319/XI15-net11 N309 U319/XI15-net18 VDD pmos W=0.205u L=0.04u
M296 U319/XI15-net18 n289 VDD VDD pmos W=0.205u L=0.04u
M297 n290 N8 VSS VSS nmos W=0.135u L=0.04u
M298 n290 N8 VDD VDD pmos W=0.205u L=0.04u
M299 n278 n281 VSS VSS nmos W=0.155u L=0.04u
M300 n278 n313 VSS VSS nmos W=0.155u L=0.04u
M301 n278 U321/net12 VSS VSS nmos W=0.155u L=0.04u
M302 U321/net12 N1631 VSS VSS nmos W=0.155u L=0.04u
M303 U321/XU9-net9 U321/net12 VDD VDD pmos W=0.41u L=0.04u
M304 U321/XU9-net12 n313 U321/XU9-net9 VDD pmos W=0.41u L=0.04u
M305 n278 n281 U321/XU9-net12 VDD pmos W=0.41u L=0.04u
M306 U321/net12 N1631 VDD VDD pmos W=0.31u L=0.04u
M307 n277 n315 VSS VSS nmos W=0.155u L=0.04u
M308 n277 n314 VSS VSS nmos W=0.155u L=0.04u
M309 n277 n281 VSS VSS nmos W=0.155u L=0.04u
M310 U322/net25 n315 VDD VDD pmos W=0.41u L=0.04u
M311 U322/net28 n314 U322/net25 VDD pmos W=0.41u L=0.04u
M312 n277 n281 U322/net28 VDD pmos W=0.41u L=0.04u
M313 U323/XU1-net6 n289 VSS VSS nmos W=0.155u L=0.04u
M314 n281 N8 U323/XU1-net6 VSS nmos W=0.155u L=0.04u
M315 n281 n289 VDD VDD pmos W=0.155u L=0.04u
M316 n281 N8 VDD VDD pmos W=0.155u L=0.04u
M317 n289 N40 U324/XI0-net10 VSS nmos W=0.155u L=0.04u
M318 U324/XI0-net10 N1816 U324/XI0-net13 VSS nmos W=0.155u L=0.04u
M319 U324/XI0-net13 n316 VSS VSS nmos W=0.155u L=0.04u
M320 n289 n316 VDD VDD pmos W=0.205u L=0.04u
M321 n289 N40 VDD VDD pmos W=0.205u L=0.04u
M322 n289 N1816 VDD VDD pmos W=0.205u L=0.04u
M323 n261 n264 VSS VSS nmos W=0.155u L=0.04u
M324 n261 n268 VSS VSS nmos W=0.155u L=0.04u
M325 n261 n269 VSS VSS nmos W=0.155u L=0.04u
M326 U325/net25 n264 VDD VDD pmos W=0.41u L=0.04u
M327 U325/net28 n268 U325/net25 VDD pmos W=0.41u L=0.04u
M328 n261 n269 U325/net28 VDD pmos W=0.41u L=0.04u
M329 n260 n266 VSS VSS nmos W=0.155u L=0.04u
M330 n260 n267 VSS VSS nmos W=0.155u L=0.04u
M331 n260 n264 VSS VSS nmos W=0.155u L=0.04u
M332 U326/net25 n266 VDD VDD pmos W=0.41u L=0.04u
M333 U326/net28 n267 U326/net25 VDD pmos W=0.41u L=0.04u
M334 n260 n264 U326/net28 VDD pmos W=0.41u L=0.04u
M335 U327/net30 n316 VSS VSS nmos W=0.155u L=0.04u
M336 n264 N1816 U327/net23 VSS nmos W=0.155u L=0.04u
M337 U327/net20 U327/net30 VSS VSS nmos W=0.155u L=0.04u
M338 U327/net23 N40 U327/net20 VSS nmos W=0.155u L=0.04u
M339 U327/net30 n316 VDD VDD pmos W=0.205u L=0.04u
M340 VDD N1816 n264 VDD pmos W=0.205u L=0.04u
M341 VDD N40 n264 VDD pmos W=0.205u L=0.04u
M342 VDD U327/net30 n264 VDD pmos W=0.205u L=0.04u
M343 n316 N262 VSS VSS nmos W=0.155u L=0.04u
M344 n316 N1818 VSS VSS nmos W=0.155u L=0.04u
M345 U328/XI1-net8 N1818 VDD VDD pmos W=0.205u L=0.04u
M346 n316 N262 U328/XI1-net8 VDD pmos W=0.205u L=0.04u
M347 N3809 n258 VSS VSS nmos W=0.135u L=0.04u
M348 N3809 n258 VDD VDD pmos W=0.205u L=0.04u
M349 U330/XU1-net6 n318 VSS VSS nmos W=0.155u L=0.04u
M350 n258 n317 U330/XU1-net6 VSS nmos W=0.155u L=0.04u
M351 n258 n318 VDD VDD pmos W=0.155u L=0.04u
M352 n258 n317 VDD VDD pmos W=0.155u L=0.04u
M353 U331/net28 U331/net20 U331/net64 VSS nmos W=0.155u L=0.04u
M354 U331/net24 U331/net30 U331/net32 VSS nmos W=0.155u L=0.04u
M355 U331/net28 U331/net40 U331/net24 VSS nmos W=0.155u L=0.04u
M356 U331/net40 N1820 U331/net108 VSS nmos W=0.155u L=0.04u
M357 U331/net40 U331/net106 U331/net104 VSS nmos W=0.155u L=0.04u
M358 U331/net24 n319 U331/net050 VSS nmos W=0.155u L=0.04u
M359 U331/net050 U331/net32 VSS VSS nmos W=0.155u L=0.04u
M360 U331/net20 U331/net40 VSS VSS nmos W=0.155u L=0.04u
M361 U331/net106 N1820 VSS VSS nmos W=0.155u L=0.04u
M362 U331/net104 N1615 VSS VSS nmos W=0.155u L=0.04u
M363 U331/net30 n319 VSS VSS nmos W=0.155u L=0.04u
M364 U331/net108 U331/net104 VSS VSS nmos W=0.155u L=0.04u
M365 n317 U331/net28 VSS VSS nmos W=0.155u L=0.04u
M366 U331/net32 n320 VSS VSS nmos W=0.155u L=0.04u
M367 U331/net64 U331/net24 VSS VSS nmos W=0.2u L=0.04u
M368 U331/net28 U331/net40 U331/net64 VDD pmos W=0.205u L=0.04u
M369 U331/net24 n319 U331/net32 VDD pmos W=0.205u L=0.04u
M370 U331/net28 U331/net20 U331/net24 VDD pmos W=0.205u L=0.04u
M371 U331/net40 U331/net106 U331/net108 VDD pmos W=0.205u L=0.04u
M372 U331/net40 N1820 U331/net104 VDD pmos W=0.205u L=0.04u
M373 U331/net20 U331/net40 VDD VDD pmos W=0.205u L=0.04u
M374 U331/net106 N1820 VDD VDD pmos W=0.205u L=0.04u
M375 U331/net104 N1615 VDD VDD pmos W=0.205u L=0.04u
M376 U331/net30 n319 VDD VDD pmos W=0.205u L=0.04u
M377 U331/net108 U331/net104 VDD VDD pmos W=0.205u L=0.04u
M378 n317 U331/net28 VDD VDD pmos W=0.205u L=0.04u
M379 U331/net32 n320 VDD VDD pmos W=0.205u L=0.04u
M380 U331/net64 U331/net24 VDD VDD pmos W=0.28u L=0.04u
M381 U331/net24 U331/net30 U331/net045 VDD pmos W=0.205u L=0.04u
M382 U331/net045 U331/net32 VDD VDD pmos W=0.205u L=0.04u
M383 U332/net19 N246 VSS VSS nmos W=0.155u L=0.04u
M384 N3780 N246 U332/net40 VSS nmos W=0.155u L=0.04u
M385 N3780 U332/net19 U332/net36 VSS nmos W=0.155u L=0.04u
M386 U332/net40 n322 VSS VSS nmos W=0.31u L=0.04u
M387 U332/net36 n321 VSS VSS nmos W=0.155u L=0.04u
M388 U332/net19 N246 VDD VDD pmos W=0.205u L=0.04u
M389 N3780 U332/net19 U332/net26 VDD pmos W=0.325u L=0.04u
M390 U332/net26 n322 VDD VDD pmos W=0.41u L=0.04u
M391 N3780 N246 U332/net30 VDD pmos W=0.325u L=0.04u
M392 U332/net30 n321 VDD VDD pmos W=0.205u L=0.04u
M393 U333/net29 U333/net21 U333/net041 VSS nmos W=0.155u L=0.04u
M394 U333/net035 U333/net19 VSS VSS nmos W=0.155u L=0.04u
M395 U333/net041 U333/net13 VSS VSS nmos W=0.155u L=0.04u
M396 U333/net25 n319 U333/net035 VSS nmos W=0.155u L=0.04u
M397 U333/net19 U333/net17 U333/net25 VSS nmos W=0.155u L=0.04u
M398 U333/net13 U333/net25 U333/net29 VSS nmos W=0.155u L=0.04u
M399 n322 U333/net29 VSS VSS nmos W=0.155u L=0.04u
M400 U333/net13 n320 VSS VSS nmos W=0.155u L=0.04u
M401 U333/net17 n319 VSS VSS nmos W=0.155u L=0.04u
M402 U333/net19 n323 VSS VSS nmos W=0.155u L=0.04u
M403 U333/net21 U333/net25 VSS VSS nmos W=0.155u L=0.04u
M404 U333/net028 U333/net19 VDD VDD pmos W=0.205u L=0.04u
M405 U333/net25 U333/net17 U333/net028 VDD pmos W=0.205u L=0.04u
M406 U333/net29 U333/net25 U333/net029 VDD pmos W=0.205u L=0.04u
M407 U333/net029 U333/net13 VDD VDD pmos W=0.205u L=0.04u
M408 U333/net19 n319 U333/net25 VDD pmos W=0.205u L=0.04u
M409 U333/net13 U333/net21 U333/net29 VDD pmos W=0.205u L=0.04u
M410 n322 U333/net29 VDD VDD pmos W=0.205u L=0.04u
M411 U333/net13 n320 VDD VDD pmos W=0.205u L=0.04u
M412 U333/net17 n319 VDD VDD pmos W=0.205u L=0.04u
M413 U333/net19 n323 VDD VDD pmos W=0.205u L=0.04u
M414 U333/net21 U333/net25 VDD VDD pmos W=0.205u L=0.04u
M415 U334/net28 U334/net20 U334/net64 VSS nmos W=0.155u L=0.04u
M416 U334/net24 U334/net30 U334/net32 VSS nmos W=0.155u L=0.04u
M417 U334/net28 U334/net40 U334/net24 VSS nmos W=0.155u L=0.04u
M418 U334/net40 N1819 U334/net108 VSS nmos W=0.155u L=0.04u
M419 U334/net40 U334/net106 U334/net104 VSS nmos W=0.155u L=0.04u
M420 U334/net24 n314 U334/net050 VSS nmos W=0.155u L=0.04u
M421 U334/net050 U334/net32 VSS VSS nmos W=0.155u L=0.04u
M422 U334/net20 U334/net40 VSS VSS nmos W=0.155u L=0.04u
M423 U334/net106 N1819 VSS VSS nmos W=0.155u L=0.04u
M424 U334/net104 N1631 VSS VSS nmos W=0.155u L=0.04u
M425 U334/net30 n314 VSS VSS nmos W=0.155u L=0.04u
M426 U334/net108 U334/net104 VSS VSS nmos W=0.155u L=0.04u
M427 n320 U334/net28 VSS VSS nmos W=0.155u L=0.04u
M428 U334/net32 N1634 VSS VSS nmos W=0.155u L=0.04u
M429 U334/net64 U334/net24 VSS VSS nmos W=0.2u L=0.04u
M430 U334/net28 U334/net40 U334/net64 VDD pmos W=0.205u L=0.04u
M431 U334/net24 n314 U334/net32 VDD pmos W=0.205u L=0.04u
M432 U334/net28 U334/net20 U334/net24 VDD pmos W=0.205u L=0.04u
M433 U334/net40 U334/net106 U334/net108 VDD pmos W=0.205u L=0.04u
M434 U334/net40 N1819 U334/net104 VDD pmos W=0.205u L=0.04u
M435 U334/net20 U334/net40 VDD VDD pmos W=0.205u L=0.04u
M436 U334/net106 N1819 VDD VDD pmos W=0.205u L=0.04u
M437 U334/net104 N1631 VDD VDD pmos W=0.205u L=0.04u
M438 U334/net30 n314 VDD VDD pmos W=0.205u L=0.04u
M439 U334/net108 U334/net104 VDD VDD pmos W=0.205u L=0.04u
M440 n320 U334/net28 VDD VDD pmos W=0.205u L=0.04u
M441 U334/net32 N1634 VDD VDD pmos W=0.205u L=0.04u
M442 U334/net64 U334/net24 VDD VDD pmos W=0.28u L=0.04u
M443 U334/net24 U334/net30 U334/net045 VDD pmos W=0.205u L=0.04u
M444 U334/net045 U334/net32 VDD VDD pmos W=0.205u L=0.04u
M445 U335/net28 U335/net20 U335/net64 VSS nmos W=0.155u L=0.04u
M446 U335/net24 U335/net30 U335/net32 VSS nmos W=0.155u L=0.04u
M447 U335/net28 U335/net40 U335/net24 VSS nmos W=0.155u L=0.04u
M448 U335/net40 n301 U335/net108 VSS nmos W=0.155u L=0.04u
M449 U335/net40 U335/net106 U335/net104 VSS nmos W=0.155u L=0.04u
M450 U335/net24 n321 U335/net050 VSS nmos W=0.155u L=0.04u
M451 U335/net050 U335/net32 VSS VSS nmos W=0.155u L=0.04u
M452 U335/net20 U335/net40 VSS VSS nmos W=0.155u L=0.04u
M453 U335/net106 n301 VSS VSS nmos W=0.155u L=0.04u
M454 U335/net104 N1612 VSS VSS nmos W=0.155u L=0.04u
M455 U335/net30 n321 VSS VSS nmos W=0.155u L=0.04u
M456 U335/net108 U335/net104 VSS VSS nmos W=0.155u L=0.04u
M457 n319 U335/net28 VSS VSS nmos W=0.155u L=0.04u
M458 U335/net32 n324 VSS VSS nmos W=0.155u L=0.04u
M459 U335/net64 U335/net24 VSS VSS nmos W=0.2u L=0.04u
M460 U335/net28 U335/net40 U335/net64 VDD pmos W=0.205u L=0.04u
M461 U335/net24 n321 U335/net32 VDD pmos W=0.205u L=0.04u
M462 U335/net28 U335/net20 U335/net24 VDD pmos W=0.205u L=0.04u
M463 U335/net40 U335/net106 U335/net108 VDD pmos W=0.205u L=0.04u
M464 U335/net40 n301 U335/net104 VDD pmos W=0.205u L=0.04u
M465 U335/net20 U335/net40 VDD VDD pmos W=0.205u L=0.04u
M466 U335/net106 n301 VDD VDD pmos W=0.205u L=0.04u
M467 U335/net104 N1612 VDD VDD pmos W=0.205u L=0.04u
M468 U335/net30 n321 VDD VDD pmos W=0.205u L=0.04u
M469 U335/net108 U335/net104 VDD VDD pmos W=0.205u L=0.04u
M470 n319 U335/net28 VDD VDD pmos W=0.205u L=0.04u
M471 U335/net32 n324 VDD VDD pmos W=0.205u L=0.04u
M472 U335/net64 U335/net24 VDD VDD pmos W=0.28u L=0.04u
M473 U335/net24 U335/net30 U335/net045 VDD pmos W=0.205u L=0.04u
M474 U335/net045 U335/net32 VDD VDD pmos W=0.205u L=0.04u
M475 n321 n325 VSS VSS nmos W=0.135u L=0.04u
M476 n321 n325 VDD VDD pmos W=0.205u L=0.04u
M477 N3671 n256 VSS VSS nmos W=0.135u L=0.04u
M478 N3671 n256 VDD VDD pmos W=0.205u L=0.04u
M479 U338/XU1-net6 n318 VSS VSS nmos W=0.155u L=0.04u
M480 n256 n326 U338/XU1-net6 VSS nmos W=0.155u L=0.04u
M481 n256 n318 VDD VDD pmos W=0.155u L=0.04u
M482 n256 n326 VDD VDD pmos W=0.155u L=0.04u
M483 n318 N37 VSS VSS nmos W=0.135u L=0.04u
M484 n318 N37 VDD VDD pmos W=0.205u L=0.04u
M485 U340/net29 U340/net21 U340/net041 VSS nmos W=0.155u L=0.04u
M486 U340/net035 U340/net19 VSS VSS nmos W=0.155u L=0.04u
M487 U340/net041 U340/net13 VSS VSS nmos W=0.155u L=0.04u
M488 U340/net25 N1816 U340/net035 VSS nmos W=0.155u L=0.04u
M489 U340/net19 U340/net17 U340/net25 VSS nmos W=0.155u L=0.04u
M490 U340/net13 U340/net25 U340/net29 VSS nmos W=0.155u L=0.04u
M491 n326 U340/net29 VSS VSS nmos W=0.155u L=0.04u
M492 U340/net13 n328 VSS VSS nmos W=0.155u L=0.04u
M493 U340/net17 N1816 VSS VSS nmos W=0.155u L=0.04u
M494 U340/net19 n327 VSS VSS nmos W=0.155u L=0.04u
M495 U340/net21 U340/net25 VSS VSS nmos W=0.155u L=0.04u
M496 U340/net028 U340/net19 VDD VDD pmos W=0.205u L=0.04u
M497 U340/net25 U340/net17 U340/net028 VDD pmos W=0.205u L=0.04u
M498 U340/net29 U340/net25 U340/net029 VDD pmos W=0.205u L=0.04u
M499 U340/net029 U340/net13 VDD VDD pmos W=0.205u L=0.04u
M500 U340/net19 N1816 U340/net25 VDD pmos W=0.205u L=0.04u
M501 U340/net13 U340/net21 U340/net29 VDD pmos W=0.205u L=0.04u
M502 n326 U340/net29 VDD VDD pmos W=0.205u L=0.04u
M503 U340/net13 n328 VDD VDD pmos W=0.205u L=0.04u
M504 U340/net17 N1816 VDD VDD pmos W=0.205u L=0.04u
M505 U340/net19 n327 VDD VDD pmos W=0.205u L=0.04u
M506 U340/net21 U340/net25 VDD VDD pmos W=0.205u L=0.04u
M507 U341/net28 U341/net20 U341/net64 VSS nmos W=0.155u L=0.04u
M508 U341/net24 U341/net30 U341/net32 VSS nmos W=0.155u L=0.04u
M509 U341/net28 U341/net40 U341/net24 VSS nmos W=0.155u L=0.04u
M510 U341/net40 n331 U341/net108 VSS nmos W=0.155u L=0.04u
M511 U341/net40 U341/net106 U341/net104 VSS nmos W=0.155u L=0.04u
M512 U341/net24 n329 U341/net050 VSS nmos W=0.155u L=0.04u
M513 U341/net050 U341/net32 VSS VSS nmos W=0.155u L=0.04u
M514 U341/net20 U341/net40 VSS VSS nmos W=0.155u L=0.04u
M515 U341/net106 n331 VSS VSS nmos W=0.155u L=0.04u
M516 U341/net104 n330 VSS VSS nmos W=0.155u L=0.04u
M517 U341/net30 n329 VSS VSS nmos W=0.155u L=0.04u
M518 U341/net108 U341/net104 VSS VSS nmos W=0.155u L=0.04u
M519 n328 U341/net28 VSS VSS nmos W=0.155u L=0.04u
M520 U341/net32 N1817 VSS VSS nmos W=0.155u L=0.04u
M521 U341/net64 U341/net24 VSS VSS nmos W=0.2u L=0.04u
M522 U341/net28 U341/net40 U341/net64 VDD pmos W=0.205u L=0.04u
M523 U341/net24 n329 U341/net32 VDD pmos W=0.205u L=0.04u
M524 U341/net28 U341/net20 U341/net24 VDD pmos W=0.205u L=0.04u
M525 U341/net40 U341/net106 U341/net108 VDD pmos W=0.205u L=0.04u
M526 U341/net40 n331 U341/net104 VDD pmos W=0.205u L=0.04u
M527 U341/net20 U341/net40 VDD VDD pmos W=0.205u L=0.04u
M528 U341/net106 n331 VDD VDD pmos W=0.205u L=0.04u
M529 U341/net104 n330 VDD VDD pmos W=0.205u L=0.04u
M530 U341/net30 n329 VDD VDD pmos W=0.205u L=0.04u
M531 U341/net108 U341/net104 VDD VDD pmos W=0.205u L=0.04u