.SUBCKT c3540 N1 N13 N20 N33 N41 N45 N50 N58 N68 N77 N87 N97 N107 N116 N124 N125 N128 N132 N137 N143 N150 N159 N169 N179 N190 N200 N213 N222 N223 N226 N232 N238 N244 N250 N257 N264 N270 N274 N283 N294 N303 N311 N317 N322 N326 N329 N330 N343 N349 N350 N26 N1947 N3195 N323 N3987 N4028 N4145 N4589 N4667 N4815 N4944 N5002 N5045 N5047 N5078 N5050 N5080 N5121 N5192 N5231 N5360 N538 VDD VSS 
M1 U431/net29 U431/net21 U431/net041 VSS nmos W=0.155u L=0.04u
M2 U431/net035 U431/net19 VSS VSS nmos W=0.155u L=0.04u
M3 U431/net041 U431/net13 VSS VSS nmos W=0.155u L=0.04u
M4 U431/net25 N5050 U431/net035 VSS nmos W=0.155u L=0.04u
M5 U431/net19 U431/net17 U431/net25 VSS nmos W=0.155u L=0.04u
M6 U431/net13 U431/net25 U431/net29 VSS nmos W=0.155u L=0.04u
M7 N538 U431/net29 VSS VSS nmos W=0.155u L=0.04u
M8 U431/net13 n416 VSS VSS nmos W=0.155u L=0.04u
M9 U431/net17 N5050 VSS VSS nmos W=0.155u L=0.04u
M10 U431/net19 N5080 VSS VSS nmos W=0.155u L=0.04u
M11 U431/net21 U431/net25 VSS VSS nmos W=0.155u L=0.04u
M12 U431/net028 U431/net19 VDD VDD pmos W=0.205u L=0.04u
M13 U431/net25 U431/net17 U431/net028 VDD pmos W=0.205u L=0.04u
M14 U431/net29 U431/net25 U431/net029 VDD pmos W=0.205u L=0.04u
M15 U431/net029 U431/net13 VDD VDD pmos W=0.205u L=0.04u
M16 U431/net19 N5050 U431/net25 VDD pmos W=0.205u L=0.04u
M17 U431/net13 U431/net21 U431/net29 VDD pmos W=0.205u L=0.04u
M18 N538 U431/net29 VDD VDD pmos W=0.205u L=0.04u
M19 U431/net13 n416 VDD VDD pmos W=0.205u L=0.04u
M20 U431/net17 N5050 VDD VDD pmos W=0.205u L=0.04u
M21 U431/net19 N5080 VDD VDD pmos W=0.205u L=0.04u
M22 U431/net21 U431/net25 VDD VDD pmos W=0.205u L=0.04u
M23 U432/net29 U432/net21 U432/net041 VSS nmos W=0.155u L=0.04u
M24 U432/net035 U432/net19 VSS VSS nmos W=0.155u L=0.04u
M25 U432/net041 U432/net13 VSS VSS nmos W=0.155u L=0.04u
M26 U432/net25 n418 U432/net035 VSS nmos W=0.155u L=0.04u
M27 U432/net19 U432/net17 U432/net25 VSS nmos W=0.155u L=0.04u
M28 U432/net13 U432/net25 U432/net29 VSS nmos W=0.155u L=0.04u
M29 N5360 U432/net29 VSS VSS nmos W=0.155u L=0.04u
M30 U432/net13 n416 VSS VSS nmos W=0.155u L=0.04u
M31 U432/net17 n418 VSS VSS nmos W=0.155u L=0.04u
M32 U432/net19 n417 VSS VSS nmos W=0.155u L=0.04u
M33 U432/net21 U432/net25 VSS VSS nmos W=0.155u L=0.04u
M34 U432/net028 U432/net19 VDD VDD pmos W=0.205u L=0.04u
M35 U432/net25 U432/net17 U432/net028 VDD pmos W=0.205u L=0.04u
M36 U432/net29 U432/net25 U432/net029 VDD pmos W=0.205u L=0.04u
M37 U432/net029 U432/net13 VDD VDD pmos W=0.205u L=0.04u
M38 U432/net19 n418 U432/net25 VDD pmos W=0.205u L=0.04u
M39 U432/net13 U432/net21 U432/net29 VDD pmos W=0.205u L=0.04u
M40 N5360 U432/net29 VDD VDD pmos W=0.205u L=0.04u
M41 U432/net13 n416 VDD VDD pmos W=0.205u L=0.04u
M42 U432/net17 n418 VDD VDD pmos W=0.205u L=0.04u
M43 U432/net19 n417 VDD VDD pmos W=0.205u L=0.04u
M44 U432/net21 U432/net25 VDD VDD pmos W=0.205u L=0.04u
M45 U433/net28 U433/net20 U433/net64 VSS nmos W=0.155u L=0.04u
M46 U433/net24 U433/net30 U433/net32 VSS nmos W=0.155u L=0.04u
M47 U433/net28 U433/net40 U433/net24 VSS nmos W=0.155u L=0.04u
M48 U433/net40 n419 U433/net108 VSS nmos W=0.155u L=0.04u
M49 U433/net40 U433/net106 U433/net104 VSS nmos W=0.155u L=0.04u
M50 U433/net24 N5121 U433/net050 VSS nmos W=0.155u L=0.04u
M51 U433/net050 U433/net32 VSS VSS nmos W=0.155u L=0.04u
M52 U433/net20 U433/net40 VSS VSS nmos W=0.155u L=0.04u
M53 U433/net106 n419 VSS VSS nmos W=0.155u L=0.04u
M54 U433/net104 N5047 VSS VSS nmos W=0.155u L=0.04u
M55 U433/net30 N5121 VSS VSS nmos W=0.155u L=0.04u
M56 U433/net108 U433/net104 VSS VSS nmos W=0.155u L=0.04u
M57 n416 U433/net28 VSS VSS nmos W=0.155u L=0.04u
M58 U433/net32 N5078 VSS VSS nmos W=0.155u L=0.04u
M59 U433/net64 U433/net24 VSS VSS nmos W=0.2u L=0.04u
M60 U433/net28 U433/net40 U433/net64 VDD pmos W=0.205u L=0.04u
M61 U433/net24 N5121 U433/net32 VDD pmos W=0.205u L=0.04u
M62 U433/net28 U433/net20 U433/net24 VDD pmos W=0.205u L=0.04u
M63 U433/net40 U433/net106 U433/net108 VDD pmos W=0.205u L=0.04u
M64 U433/net40 n419 U433/net104 VDD pmos W=0.205u L=0.04u
M65 U433/net20 U433/net40 VDD VDD pmos W=0.205u L=0.04u
M66 U433/net106 n419 VDD VDD pmos W=0.205u L=0.04u
M67 U433/net104 N5047 VDD VDD pmos W=0.205u L=0.04u
M68 U433/net30 N5121 VDD VDD pmos W=0.205u L=0.04u
M69 U433/net108 U433/net104 VDD VDD pmos W=0.205u L=0.04u
M70 n416 U433/net28 VDD VDD pmos W=0.205u L=0.04u
M71 U433/net32 N5078 VDD VDD pmos W=0.205u L=0.04u
M72 U433/net64 U433/net24 VDD VDD pmos W=0.28u L=0.04u
M73 U433/net24 U433/net30 U433/net045 VDD pmos W=0.205u L=0.04u
M74 U433/net045 U433/net32 VDD VDD pmos W=0.205u L=0.04u
M75 U434/net11 N5045 U434/net17 VSS nmos W=0.155u L=0.04u
M76 U434/net5 U434/net17 U434/net21 VSS nmos W=0.155u L=0.04u
M77 U434/net5 N4815 VSS VSS nmos W=0.155u L=0.04u
M78 n419 U434/net21 VSS VSS nmos W=0.155u L=0.04u
M79 U434/net16 N5045 VSS VSS nmos W=0.155u L=0.04u
M80 U434/net11 N4944 VSS VSS nmos W=0.155u L=0.04u
M81 U434/net13 U434/net17 VSS VSS nmos W=0.155u L=0.04u
M82 U434/net17 U434/net16 U434/XI2-net16 VSS nmos W=0.155u L=0.04u
M83 U434/XI2-net16 U434/net11 VSS VSS nmos W=0.155u L=0.04u
M84 U434/net21 U434/net13 U434/XU21-net16 VSS nmos W=0.155u L=0.04u
M85 U434/XU21-net16 U434/net5 VSS VSS nmos W=0.155u L=0.04u
M86 U434/net11 U434/net16 U434/net17 VDD pmos W=0.205u L=0.04u
M87 U434/net5 U434/net13 U434/net21 VDD pmos W=0.205u L=0.04u
M88 U434/net5 N4815 VDD VDD pmos W=0.205u L=0.04u
M89 n419 U434/net21 VDD VDD pmos W=0.205u L=0.04u
M90 U434/net16 N5045 VDD VDD pmos W=0.205u L=0.04u
M91 U434/net11 N4944 VDD VDD pmos W=0.205u L=0.04u
M92 U434/net13 U434/net17 VDD VDD pmos W=0.205u L=0.04u
M93 U434/net17 N5045 U434/XI2-net6 VDD pmos W=0.205u L=0.04u
M94 U434/XI2-net6 U434/net11 VDD VDD pmos W=0.205u L=0.04u
M95 U434/net21 U434/net17 U434/XU21-net6 VDD pmos W=0.205u L=0.04u
M96 U434/XU21-net6 U434/net5 VDD VDD pmos W=0.205u L=0.04u
M97 U435/XU1-net6 N5050 VSS VSS nmos W=0.155u L=0.04u
M98 n418 n420 U435/XU1-net6 VSS nmos W=0.155u L=0.04u
M99 n418 N5050 VDD VDD pmos W=0.155u L=0.04u
M100 n418 n420 VDD VDD pmos W=0.155u L=0.04u
M101 U436/net19 n420 VSS VSS nmos W=0.155u L=0.04u
M102 n417 n420 U436/net40 VSS nmos W=0.155u L=0.04u
M103 n417 U436/net19 U436/net36 VSS nmos W=0.155u L=0.04u
M104 U436/net40 N5080 VSS VSS nmos W=0.31u L=0.04u
M105 U436/net36 N350 VSS VSS nmos W=0.155u L=0.04u
M106 U436/net19 n420 VDD VDD pmos W=0.205u L=0.04u
M107 n417 U436/net19 U436/net26 VDD pmos W=0.325u L=0.04u
M108 U436/net26 N5080 VDD VDD pmos W=0.41u L=0.04u
M109 n417 n420 U436/net30 VDD pmos W=0.325u L=0.04u
M110 U436/net30 N350 VDD VDD pmos W=0.205u L=0.04u
M111 U437/net13 N343 VSS VSS nmos W=0.155u L=0.04u
M112 U437/net16 U437/net13 VSS VSS nmos W=0.155u L=0.04u
M113 n420 N213 U437/net16 VSS nmos W=0.155u L=0.04u
M114 U437/net13 N343 VDD VDD pmos W=0.205u L=0.04u
M115 VDD U437/net13 n420 VDD pmos W=0.205u L=0.04u
M116 VDD N213 n420 VDD pmos W=0.205u L=0.04u
M117 U438/net36 N5192 U438/net24 VSS nmos W=0.155u L=0.04u
M118 U438/net24 N213 VSS VSS nmos W=0.155u L=0.04u
M119 N5231 N5050 U438/net36 VSS nmos W=0.155u L=0.04u
M120 N5231 n421 U438/net36 VSS nmos W=0.155u L=0.04u
M121 N5231 n421 U438/net35 VDD pmos W=0.205u L=0.04u
M122 U438/net35 N5050 VDD VDD pmos W=0.205u L=0.04u
M123 N5231 N213 VDD VDD pmos W=0.205u L=0.04u
M124 N5231 N5192 VDD VDD pmos W=0.205u L=0.04u
M125 n421 U439/net7 VSS VSS nmos W=0.155u L=0.04u
M126 U439/net7 N5080 VSS VSS nmos W=0.155u L=0.04u
M127 U439/net7 N343 VSS VSS nmos W=0.155u L=0.04u
M128 n421 U439/net7 VDD VDD pmos W=0.205u L=0.04u
M129 U439/X_u7-net8 N343 VDD VDD pmos W=0.205u L=0.04u
M130 U439/net7 N5080 U439/X_u7-net8 VDD pmos W=0.205u L=0.04u
M131 U440/XU1-net6 n423 VSS VSS nmos W=0.155u L=0.04u
M132 N5192 n422 U440/XU1-net6 VSS nmos W=0.155u L=0.04u
M133 N5192 n423 VDD VDD pmos W=0.155u L=0.04u
M134 N5192 n422 VDD VDD pmos W=0.155u L=0.04u
M135 n423 N5050 VSS VSS nmos W=0.155u L=0.04u
M136 n423 N5078 VSS VSS nmos W=0.155u L=0.04u
M137 n423 N5080 VSS VSS nmos W=0.155u L=0.04u
M138 n423 N5121 VSS VSS nmos W=0.155u L=0.04u
M139 U441/net49 N5078 U441/net52 VDD pmos W=0.41u L=0.04u
M140 U441/net52 N5050 VDD VDD pmos W=0.41u L=0.04u
M141 U441/net46 N5080 U441/net49 VDD pmos W=0.41u L=0.04u
M142 n423 N5121 U441/net46 VDD pmos W=0.41u L=0.04u
M143 n422 N4815 VSS VSS nmos W=0.155u L=0.04u
M144 n422 N4944 VSS VSS nmos W=0.155u L=0.04u
M145 n422 N5045 VSS VSS nmos W=0.155u L=0.04u
M146 n422 N5047 VSS VSS nmos W=0.155u L=0.04u
M147 U442/net49 N4944 U442/net52 VDD pmos W=0.41u L=0.04u
M148 U442/net52 N4815 VDD VDD pmos W=0.41u L=0.04u
M149 U442/net46 N5045 U442/net49 VDD pmos W=0.41u L=0.04u
M150 n422 N5047 U442/net46 VDD pmos W=0.41u L=0.04u
M151 U443/XU1-net6 n425 VSS VSS nmos W=0.155u L=0.04u
M152 N5121 n424 U443/XU1-net6 VSS nmos W=0.155u L=0.04u
M153 N5121 n425 VDD VDD pmos W=0.155u L=0.04u
M154 N5121 n424 VDD VDD pmos W=0.155u L=0.04u
M155 U444/net36 n428 U444/net24 VSS nmos W=0.155u L=0.04u
M156 U444/net24 n429 VSS VSS nmos W=0.155u L=0.04u
M157 n425 n426 U444/net36 VSS nmos W=0.155u L=0.04u
M158 n425 n427 U444/net36 VSS nmos W=0.155u L=0.04u
M159 n425 n427 U444/net35 VDD pmos W=0.205u L=0.04u
M160 U444/net35 n426 VDD VDD pmos W=0.205u L=0.04u
M161 n425 n429 VDD VDD pmos W=0.205u L=0.04u
M162 n425 n428 VDD VDD pmos W=0.205u L=0.04u
M163 n429 n434 U445/XI21-net17 VSS nmos W=0.155u L=0.04u
M164 U445/XI21-net17 n435 VSS VSS nmos W=0.155u L=0.04u
M165 n429 n430 U445/XI6-net17 VSS nmos W=0.155u L=0.04u
M166 U445/XI6-net17 n431 VSS VSS nmos W=0.155u L=0.04u
M167 n429 n432 U445/XI20-net17 VSS nmos W=0.155u L=0.04u
M168 U445/XI20-net17 n433 VSS VSS nmos W=0.155u L=0.04u
M169 VDD n434 U445/net22 VDD pmos W=0.205u L=0.04u
M170 VDD n435 U445/net22 VDD pmos W=0.205u L=0.04u
M171 U445/net16 n430 n429 VDD pmos W=0.205u L=0.04u
M172 U445/net16 n431 n429 VDD pmos W=0.205u L=0.04u
M173 U445/net22 n432 U445/net16 VDD pmos W=0.205u L=0.04u
M174 U445/net22 n433 U445/net16 VDD pmos W=0.205u L=0.04u
M175 n435 n438 VSS VSS nmos W=0.155u L=0.04u
M176 n435 N128 U446/XI17-net17 VSS nmos W=0.155u L=0.04u
M177 U446/XI17-net17 n437 VSS VSS nmos W=0.155u L=0.04u
M178 n435 n436 U446/XI10-net17 VSS nmos W=0.155u L=0.04u
M179 U446/XI10-net17 N50 VSS VSS nmos W=0.155u L=0.04u
M180 U446/net30 n436 n435 VDD pmos W=0.205u L=0.04u
M181 U446/net30 N50 n435 VDD pmos W=0.205u L=0.04u
M182 VDD n438 U446/net36 VDD pmos W=0.205u L=0.04u
M183 U446/net36 n437 U446/net30 VDD pmos W=0.205u L=0.04u
M184 U446/net36 N128 U446/net30 VDD pmos W=0.205u L=0.04u
M185 n438 n440 U447/net27 VSS nmos W=0.155u L=0.04u
M186 U447/net39 n444 VSS VSS nmos W=0.155u L=0.04u
M187 U447/net27 n441 U447/net39 VSS nmos W=0.155u L=0.04u
M188 U447/net27 n442 U447/net39 VSS nmos W=0.155u L=0.04u
M189 n438 n439 U447/net27 VSS nmos W=0.155u L=0.04u
M190 U447/net39 n443 VSS VSS nmos W=0.155u L=0.04u
M191 n438 n444 U447/net46 VDD pmos W=0.205u L=0.04u
M192 U447/net46 n443 VDD VDD pmos W=0.205u L=0.04u
M193 n438 n439 U447/net34 VDD pmos W=0.205u L=0.04u
M194 U447/net34 n440 VDD VDD pmos W=0.205u L=0.04u
M195 n438 n442 U447/net37 VDD pmos W=0.205u L=0.04u
M196 U447/net37 n441 VDD VDD pmos W=0.205u L=0.04u
M197 U448/net11 N132 n434 VDD pmos W=0.205u L=0.04u
M198 U448/net11 n445 n434 VDD pmos W=0.205u L=0.04u
M199 U448/net11 n446 U448/XI16-net11 VDD pmos W=0.205u L=0.04u
M200 U448/XI16-net11 n447 VDD VDD pmos W=0.205u L=0.04u
M201 n434 n447 VSS VSS nmos W=0.155u L=0.04u
M202 n434 n446 VSS VSS nmos W=0.155u L=0.04u
M203 n434 N132 U448/XI12-net17 VSS nmos W=0.155u L=0.04u
M204 U448/XI12-net17 n445 VSS VSS nmos W=0.155u L=0.04u
M205 n446 n448 U449/net10 VSS nmos W=0.155u L=0.04u
M206 U449/net10 n451 VSS VSS nmos W=0.155u L=0.04u
M207 n446 n449 U449/net10 VSS nmos W=0.155u L=0.04u
M208 U449/net10 n450 VSS VSS nmos W=0.155u L=0.04u
M209 U449/net30 n451 VDD VDD pmos W=0.205u L=0.04u
M210 n446 n448 U449/net24 VDD pmos W=0.205u L=0.04u
M211 U449/net24 n449 VDD VDD pmos W=0.205u L=0.04u
M212 n446 n450 U449/net30 VDD pmos W=0.205u L=0.04u
M213 n433 n452 VSS VSS nmos W=0.155u L=0.04u
M214 n433 N303 U450/XI17-net17 VSS nmos W=0.155u L=0.04u
M215 U450/XI17-net17 n437 VSS VSS nmos W=0.155u L=0.04u
M216 n433 N87 U450/XI10-net17 VSS nmos W=0.155u L=0.04u
M217 U450/XI10-net17 n436 VSS VSS nmos W=0.155u L=0.04u
M218 U450/net30 N87 n433 VDD pmos W=0.205u L=0.04u
M219 U450/net30 n436 n433 VDD pmos W=0.205u L=0.04u
M220 VDD n452 U450/net36 VDD pmos W=0.205u L=0.04u
M221 U450/net36 n437 U450/net30 VDD pmos W=0.205u L=0.04u
M222 U450/net36 N303 U450/net30 VDD pmos W=0.205u L=0.04u
M223 n452 n453 U451/net27 VSS nmos W=0.155u L=0.04u
M224 U451/net39 n444 VSS VSS nmos W=0.155u L=0.04u
M225 U451/net27 n441 U451/net39 VSS nmos W=0.155u L=0.04u
M226 U451/net27 n454 U451/net39 VSS nmos W=0.155u L=0.04u
M227 n452 n439 U451/net27 VSS nmos W=0.155u L=0.04u
M228 U451/net39 n455 VSS VSS nmos W=0.155u L=0.04u
M229 n452 n444 U451/net46 VDD pmos W=0.205u L=0.04u
M230 U451/net46 n455 VDD VDD pmos W=0.205u L=0.04u
M231 n452 n439 U451/net34 VDD pmos W=0.205u L=0.04u
M232 U451/net34 n453 VDD VDD pmos W=0.205u L=0.04u
M233 n452 n454 U451/net37 VDD pmos W=0.205u L=0.04u
M234 U451/net37 n441 VDD VDD pmos W=0.205u L=0.04u
M235 U452/net11 N294 n432 VDD pmos W=0.205u L=0.04u
M236 U452/net11 n445 n432 VDD pmos W=0.205u L=0.04u
M237 U452/net11 n456 U452/XI16-net11 VDD pmos W=0.205u L=0.04u
M238 U452/XI16-net11 n457 VDD VDD pmos W=0.205u L=0.04u
M239 n432 n457 VSS VSS nmos W=0.155u L=0.04u
M240 n432 n456 VSS VSS nmos W=0.155u L=0.04u
M241 n432 N294 U452/XI12-net17 VSS nmos W=0.155u L=0.04u
M242 U452/XI12-net17 n445 VSS VSS nmos W=0.155u L=0.04u
M243 n456 n449 U453/net10 VSS nmos W=0.155u L=0.04u
M244 U453/net10 n459 VSS VSS nmos W=0.155u L=0.04u
M245 n456 n458 U453/net10 VSS nmos W=0.155u L=0.04u
M246 U453/net10 n450 VSS VSS nmos W=0.155u L=0.04u
M247 U453/net30 n459 VDD VDD pmos W=0.205u L=0.04u
M248 n456 n449 U453/net24 VDD pmos W=0.205u L=0.04u
M249 U453/net24 n458 VDD VDD pmos W=0.205u L=0.04u
M250 n456 n450 U453/net30 VDD pmos W=0.205u L=0.04u
M251 U454/net19 n462 VSS VSS nmos W=0.155u L=0.04u
M252 n424 n462 U454/net40 VSS nmos W=0.155u L=0.04u
M253 n424 U454/net19 U454/net36 VSS nmos W=0.155u L=0.04u
M254 U454/net40 n461 VSS VSS nmos W=0.31u L=0.04u
M255 U454/net36 n460 VSS VSS nmos W=0.155u L=0.04u
M256 U454/net19 n462 VDD VDD pmos W=0.205u L=0.04u
M257 n424 U454/net19 U454/net26 VDD pmos W=0.325u L=0.04u
M258 U454/net26 n461 VDD VDD pmos W=0.41u L=0.04u
M259 n424 n462 U454/net30 VDD pmos W=0.325u L=0.04u
M260 U454/net30 n460 VDD VDD pmos W=0.205u L=0.04u
M261 n461 n463 VSS VSS nmos W=0.155u L=0.04u
M262 n461 n464 VSS VSS nmos W=0.155u L=0.04u
M263 U455/XI1-net8 n464 VDD VDD pmos W=0.205u L=0.04u
M264 n461 n463 U455/XI1-net8 VDD pmos W=0.205u L=0.04u
M265 N5080 n465 U456/net15 VSS nmos W=0.155u L=0.04u
M266 N5080 n466 U456/net15 VSS nmos W=0.155u L=0.04u
M267 U456/net15 n467 VSS VSS nmos W=0.155u L=0.04u
M268 N5080 n467 VDD VDD pmos W=0.205u L=0.04u
M269 N5080 n465 U456/XI16-net11 VDD pmos W=0.205u L=0.04u
M270 U456/XI16-net11 n466 VDD VDD pmos W=0.205u L=0.04u
M271 U457/net36 n428 U457/net24 VSS nmos W=0.155u L=0.04u
M272 U457/net24 n469 VSS VSS nmos W=0.155u L=0.04u
M273 n467 n468 U457/net36 VSS nmos W=0.155u L=0.04u
M274 n467 n426 U457/net36 VSS nmos W=0.155u L=0.04u
M275 n467 n426 U457/net35 VDD pmos W=0.205u L=0.04u
M276 U457/net35 n468 VDD VDD pmos W=0.205u L=0.04u
M277 n467 n469 VDD VDD pmos W=0.205u L=0.04u
M278 n467 n428 VDD VDD pmos W=0.205u L=0.04u
M279 n469 n470 U458/net23 VDD pmos W=0.205u L=0.04u
M280 n469 n472 U458/net23 VDD pmos W=0.205u L=0.04u
M281 n469 n471 U458/net23 VDD pmos W=0.205u L=0.04u
M282 U458/net23 n473 VDD VDD pmos W=0.205u L=0.04u
M283 U458/net23 n474 VDD VDD pmos W=0.205u L=0.04u
M284 U458/XI20-net13 n472 VSS VSS nmos W=0.155u L=0.04u
M285 n469 n470 U458/XI20-net17 VSS nmos W=0.155u L=0.04u
M286 U458/XI20-net17 n471 U458/XI20-net13 VSS nmos W=0.155u L=0.04u
M287 n469 n473 U458/XI17-net17 VSS nmos W=0.155u L=0.04u
M288 U458/XI17-net17 n474 VSS VSS nmos W=0.155u L=0.04u
M289 n473 n475 U459/net15 VSS nmos W=0.155u L=0.04u
M290 n473 n471 U459/net15 VSS nmos W=0.155u L=0.04u
M291 U459/net15 n476 VSS VSS nmos W=0.155u L=0.04u
M292 n473 n476 VDD VDD pmos W=0.205u L=0.04u
M293 n473 n475 U459/XI16-net11 VDD pmos W=0.205u L=0.04u
M294 U459/XI16-net11 n471 VDD VDD pmos W=0.205u L=0.04u
M295 U460/net19 N33 VSS VSS nmos W=0.155u L=0.04u
M296 n472 N33 U460/net40 VSS nmos W=0.155u L=0.04u
M297 n472 U460/net19 U460/net36 VSS nmos W=0.155u L=0.04u
M298 U460/net40 n478 VSS VSS nmos W=0.31u L=0.04u
M299 U460/net36 n477 VSS VSS nmos W=0.155u L=0.04u
M300 U460/net19 N33 VDD VDD pmos W=0.205u L=0.04u
M301 n472 U460/net19 U460/net26 VDD pmos W=0.325u L=0.04u
M302 U460/net26 n478 VDD VDD pmos W=0.41u L=0.04u
M303 n472 N33 U460/net30 VDD pmos W=0.325u L=0.04u
M304 U460/net30 n477 VDD VDD pmos W=0.205u L=0.04u
M305 U461/p2 n482 VSS VSS nmos W=0.155u L=0.04u
M306 U461/p0 n480 U461/p1 VSS nmos W=0.155u L=0.04u
M307 U461/p1 n481 U461/p2 VSS nmos W=0.155u L=0.04u
M308 n478 n479 U461/p0 VSS nmos W=0.155u L=0.04u
M309 n478 n481 VDD VDD pmos W=0.205u L=0.04u
M310 n478 n480 VDD VDD pmos W=0.205u L=0.04u
M311 n478 n479 VDD VDD pmos W=0.205u L=0.04u
M312 n478 n482 VDD VDD pmos W=0.205u L=0.04u
M313 n482 n483 U462/net27 VSS nmos W=0.155u L=0.04u
M314 U462/net27 N58 VSS VSS nmos W=0.155u L=0.04u
M315 n482 n484 VSS VSS nmos W=0.155u L=0.04u
M316 n482 N58 U462/net13 VDD pmos W=0.205u L=0.04u
M317 U462/net13 n484 VDD VDD pmos W=0.205u L=0.04u
M318 n482 n483 U462/net13 VDD pmos W=0.205u L=0.04u
M319 U463/net29 n437 VSS VSS nmos W=0.155u L=0.04u
M320 n481 N283 U463/net29 VSS nmos W=0.155u L=0.04u
M321 n481 N68 U463/net23 VSS nmos W=0.155u L=0.04u
M322 U463/net23 n436 VSS VSS nmos W=0.155u L=0.04u
M323 U463/net20 n436 n481 VDD pmos W=0.205u L=0.04u
M324 U463/net20 N68 n481 VDD pmos W=0.205u L=0.04u
M325 VDD N283 U463/net20 VDD pmos W=0.205u L=0.04u
M326 VDD n437 U463/net20 VDD pmos W=0.205u L=0.04u
M327 U464/net29 n486 VSS VSS nmos W=0.155u L=0.04u
M328 n480 N107 U464/net29 VSS nmos W=0.155u L=0.04u
M329 n480 n485 U464/net23 VSS nmos W=0.155u L=0.04u
M330 U464/net23 N87 VSS VSS nmos W=0.155u L=0.04u
M331 U464/net20 N87 n480 VDD pmos W=0.205u L=0.04u
M332 U464/net20 n485 n480 VDD pmos W=0.205u L=0.04u
M333 VDD N107 U464/net20 VDD pmos W=0.205u L=0.04u
M334 VDD n486 U464/net20 VDD pmos W=0.205u L=0.04u
M335 U465/net29 n445 VSS VSS nmos W=0.155u L=0.04u
M336 n479 N116 U465/net29 VSS nmos W=0.155u L=0.04u
M337 n479 N97 U465/net23 VSS nmos W=0.155u L=0.04u
M338 U465/net23 n487 VSS VSS nmos W=0.155u L=0.04u
M339 U465/net20 n487 n479 VDD pmos W=0.205u L=0.04u
M340 U465/net20 N97 n479 VDD pmos W=0.205u L=0.04u
M341 VDD N116 U465/net20 VDD pmos W=0.205u L=0.04u
M342 VDD n445 U465/net20 VDD pmos W=0.205u L=0.04u
M343 U466/p2 n491 VSS VSS nmos W=0.155u L=0.04u
M344 U466/p0 n489 U466/p1 VSS nmos W=0.155u L=0.04u
M345 U466/p1 n490 U466/p2 VSS nmos W=0.155u L=0.04u
M346 n477 n488 U466/p0 VSS nmos W=0.155u L=0.04u
M347 n477 n490 VDD VDD pmos W=0.205u L=0.04u
M348 n477 n489 VDD VDD pmos W=0.205u L=0.04u
M349 n477 n488 VDD VDD pmos W=0.205u L=0.04u
M350 n477 n491 VDD VDD pmos W=0.205u L=0.04u
M351 U467/net29 n436 VSS VSS nmos W=0.155u L=0.04u
M352 n491 N150 U467/net29 VSS nmos W=0.155u L=0.04u
M353 n491 N159 U467/net23 VSS nmos W=0.155u L=0.04u
M354 U467/net23 n483 VSS VSS nmos W=0.155u L=0.04u
M355 U467/net20 n483 n491 VDD pmos W=0.205u L=0.04u
M356 U467/net20 N159 n491 VDD pmos W=0.205u L=0.04u
M357 VDD N150 U467/net20 VDD pmos W=0.205u L=0.04u
M358 VDD n436 U467/net20 VDD pmos W=0.205u L=0.04u
M359 U468/net29 n492 VSS VSS nmos W=0.155u L=0.04u
M360 n490 N143 U468/net29 VSS nmos W=0.155u L=0.04u
M361 n490 N124 U468/net23 VSS nmos W=0.155u L=0.04u
M362 U468/net23 n437 VSS VSS nmos W=0.155u L=0.04u
M363 U468/net20 n437 n490 VDD pmos W=0.205u L=0.04u
M364 U468/net20 N124 n490 VDD pmos W=0.205u L=0.04u
M365 VDD N143 U468/net20 VDD pmos W=0.205u L=0.04u
M366 VDD n492 U468/net20 VDD pmos W=0.205u L=0.04u
M367 U469/net29 n485 VSS VSS nmos W=0.155u L=0.04u
M368 n489 N137 U469/net29 VSS nmos W=0.155u L=0.04u
M369 n489 N132 U469/net23 VSS nmos W=0.155u L=0.04u
M370 U469/net23 n487 VSS VSS nmos W=0.155u L=0.04u
M371 U469/net20 n487 n489 VDD pmos W=0.205u L=0.04u
M372 U469/net20 N132 n489 VDD pmos W=0.205u L=0.04u
M373 VDD N137 U469/net20 VDD pmos W=0.205u L=0.04u
M374 VDD n485 U469/net20 VDD pmos W=0.205u L=0.04u
M375 U470/net29 n445 VSS VSS nmos W=0.155u L=0.04u
M376 n488 N125 U470/net29 VSS nmos W=0.155u L=0.04u
M377 n488 N128 U470/net23 VSS nmos W=0.155u L=0.04u
M378 U470/net23 n486 VSS VSS nmos W=0.155u L=0.04u
M379 U470/net20 n486 n488 VDD pmos W=0.205u L=0.04u
M380 U470/net20 N128 n488 VDD pmos W=0.205u L=0.04u
M381 VDD N125 U470/net20 VDD pmos W=0.205u L=0.04u
M382 VDD n445 U470/net20 VDD pmos W=0.205u L=0.04u
M383 U471/net4 n468 U471/net14 VSS nmos W=0.155u L=0.04u
M384 U471/net6 U471/net10 U471/net14 VSS nmos W=0.17u L=0.04u
M385 U471/net4 n493 VSS VSS nmos W=0.155u L=0.04u
M386 U471/net6 U471/net4 VSS VSS nmos W=0.17u L=0.04u
M387 n466 U471/net14 VSS VSS nmos W=0.155u L=0.04u
M388 U471/net10 n468 VSS VSS nmos W=0.155u L=0.04u
M389 U471/net4 U471/net10 U471/net14 VDD pmos W=0.255u L=0.04u
M390 U471/net6 n468 U471/net14 VDD pmos W=0.28u L=0.04u
M391 U471/net4 n493 VDD VDD pmos W=0.205u L=0.04u
M392 U471/net6 U471/net4 VDD VDD pmos W=0.24u L=0.04u
M393 n466 U471/net14 VDD VDD pmos W=0.205u L=0.04u
M394 U471/net10 n468 VDD VDD pmos W=0.205u L=0.04u
M395 U472/net13 n494 VSS VSS nmos W=0.155u L=0.04u
M396 U472/net16 U472/net13 VSS VSS nmos W=0.155u L=0.04u
M397 n493 n495 U472/net16 VSS nmos W=0.155u L=0.04u
M398 U472/net13 n494 VDD VDD pmos W=0.205u L=0.04u
M399 VDD U472/net13 n493 VDD pmos W=0.205u L=0.04u
M400 VDD n495 n493 VDD pmos W=0.205u L=0.04u
M401 U473/net4 n496 U473/net14 VSS nmos W=0.155u L=0.04u
M402 U473/net6 U473/net10 U473/net14 VSS nmos W=0.17u L=0.04u
M403 U473/net4 n497 VSS VSS nmos W=0.155u L=0.04u
M404 U473/net6 U473/net4 VSS VSS nmos W=0.17u L=0.04u
M405 n468 U473/net14 VSS VSS nmos W=0.155u L=0.04u
M406 U473/net10 n496 VSS VSS nmos W=0.155u L=0.04u
M407 U473/net4 U473/net10 U473/net14 VDD pmos W=0.255u L=0.04u
M408 U473/net6 n496 U473/net14 VDD pmos W=0.28u L=0.04u
M409 U473/net4 n497 VDD VDD pmos W=0.205u L=0.04u
M410 U473/net6 U473/net4 VDD VDD pmos W=0.24u L=0.04u
M411 n468 U473/net14 VDD VDD pmos W=0.205u L=0.04u
M412 U473/net10 n496 VDD VDD pmos W=0.205u L=0.04u
M413 U474/XU1-net6 n499 VSS VSS nmos W=0.155u L=0.04u
M414 n497 n498 U474/XU1-net6 VSS nmos W=0.155u L=0.04u
M415 n497 n499 VDD VDD pmos W=0.155u L=0.04u
M416 n497 n498 VDD VDD pmos W=0.155u L=0.04u
M417 VSS n501 U475/net22 VSS nmos W=0.155u L=0.04u
M418 U475/net22 n500 U475/net30 VSS nmos W=0.155u L=0.04u
M419 U475/net22 n463 U475/net30 VSS nmos W=0.155u L=0.04u
M420 U475/net22 n462 U475/net30 VSS nmos W=0.155u L=0.04u
M421 n465 U475/net30 VSS VSS nmos W=0.155u L=0.04u
M422 n465 U475/net30 VDD VDD pmos W=0.205u L=0.04u
M423 U475/net38 n462 VDD VDD pmos W=0.205u L=0.04u
M424 U475/net35 n463 U475/net38 VDD pmos W=0.205u L=0.04u
M425 U475/net30 n500 U475/net35 VDD pmos W=0.205u L=0.04u
M426 U475/net30 n501 VDD VDD pmos W=0.205u L=0.04u
M427 N5078 n502 U476/net26 VSS nmos W=0.155u L=0.04u
M428 N5078 n463 U476/net26 VSS nmos W=0.155u L=0.04u
M429 U476/net29 n505 VSS VSS nmos W=0.155u L=0.04u
M430 U476/net26 n503 U476/net29 VSS nmos W=0.155u L=0.04u
M431 U476/net26 n504 U476/net29 VSS nmos W=0.155u L=0.04u
M432 N5078 n463 U476/net43 VDD pmos W=0.205u L=0.04u
M433 N5078 n504 U476/net49 VDD pmos W=0.205u L=0.04u
M434 U476/net49 n503 VDD VDD pmos W=0.205u L=0.04u
M435 U476/net43 n502 VDD VDD pmos W=0.205u L=0.04u
M436 N5078 n505 VDD VDD pmos W=0.205u L=0.04u
M437 U477/net36 n428 U477/net24 VSS nmos W=0.155u L=0.04u
M438 U477/net24 n508 VSS VSS nmos W=0.155u L=0.04u
M439 n505 n506 U477/net36 VSS nmos W=0.155u L=0.04u
M440 n505 n507 U477/net36 VSS nmos W=0.155u L=0.04u
M441 n505 n507 U477/net35 VDD pmos W=0.205u L=0.04u
M442 U477/net35 n506 VDD VDD pmos W=0.205u L=0.04u
M443 n505 n508 VDD VDD pmos W=0.205u L=0.04u
M444 n505 n428 VDD VDD pmos W=0.205u L=0.04u
M445 n508 n513 VSS VSS nmos W=0.155u L=0.04u
M446 n508 n511 U478/XI17-net17 VSS nmos W=0.155u L=0.04u
M447 U478/XI17-net17 n512 VSS VSS nmos W=0.155u L=0.04u
M448 n508 n509 U478/XI10-net17 VSS nmos W=0.155u L=0.04u
M449 U478/XI10-net17 n510 VSS VSS nmos W=0.155u L=0.04u
M450 U478/net30 n509 n508 VDD pmos W=0.205u L=0.04u
M451 U478/net30 n510 n508 VDD pmos W=0.205u L=0.04u
M452 VDD n513 U478/net36 VDD pmos W=0.205u L=0.04u
M453 U478/net36 n512 U478/net30 VDD pmos W=0.205u L=0.04u
M454 U478/net36 n511 U478/net30 VDD pmos W=0.205u L=0.04u
M455 n513 n514 U479/net27 VSS nmos W=0.155u L=0.04u
M456 U479/net27 n515 VSS VSS nmos W=0.155u L=0.04u
M457 n513 n516 VSS VSS nmos W=0.155u L=0.04u
M458 n513 n515 U479/net13 VDD pmos W=0.205u L=0.04u
M459 U479/net13 n516 VDD VDD pmos W=0.205u L=0.04u
M460 n513 n514 U479/net13 VDD pmos W=0.205u L=0.04u
M461 U480/net19 n518 VSS VSS nmos W=0.155u L=0.04u
M462 n514 n518 U480/net40 VSS nmos W=0.155u L=0.04u
M463 n514 U480/net19 U480/net36 VSS nmos W=0.155u L=0.04u
M464 U480/net40 n517 VSS VSS nmos W=0.31u L=0.04u
M465 U480/net36 n459 VSS VSS nmos W=0.155u L=0.04u
M466 U480/net19 n518 VDD VDD pmos W=0.205u L=0.04u
M467 n514 U480/net19 U480/net26 VDD pmos W=0.325u L=0.04u
M468 U480/net26 n517 VDD VDD pmos W=0.41u L=0.04u
M469 n514 n518 U480/net30 VDD pmos W=0.325u L=0.04u
M470 U480/net30 n459 VDD VDD pmos W=0.205u L=0.04u
M471 n512 n519 VSS VSS nmos W=0.155u L=0.04u
M472 n512 N143 U481/XI17-net17 VSS nmos W=0.155u L=0.04u
M473 U481/XI17-net17 n437 VSS VSS nmos W=0.155u L=0.04u
M474 n512 N87 U481/XI10-net17 VSS nmos W=0.155u L=0.04u
M475 U481/XI10-net17 n483 VSS VSS nmos W=0.155u L=0.04u
M476 U481/net30 N87 n512 VDD pmos W=0.205u L=0.04u
M477 U481/net30 n483 n512 VDD pmos W=0.205u L=0.04u
M478 VDD n519 U481/net36 VDD pmos W=0.205u L=0.04u
M479 U481/net36 n437 U481/net30 VDD pmos W=0.205u L=0.04u
M480 U481/net36 N143 U481/net30 VDD pmos W=0.205u L=0.04u
M481 n519 n451 U482/net26 VSS nmos W=0.155u L=0.04u
M482 n519 n441 U482/net26 VSS nmos W=0.155u L=0.04u
M483 U482/net29 n520 VSS VSS nmos W=0.155u L=0.04u
M484 U482/net26 n474 U482/net29 VSS nmos W=0.155u L=0.04u
M485 U482/net26 n439 U482/net29 VSS nmos W=0.155u L=0.04u
M486 n519 n441 U482/net43 VDD pmos W=0.205u L=0.04u
M487 n519 n439 U482/net49 VDD pmos W=0.205u L=0.04u
M488 U482/net49 n474 VDD VDD pmos W=0.205u L=0.04u
M489 U482/net43 n451 VDD VDD pmos W=0.205u L=0.04u
M490 n519 n520 VDD VDD pmos W=0.205u L=0.04u
M491 U483/net11 n445 n511 VDD pmos W=0.205u L=0.04u
M492 U483/net11 N150 n511 VDD pmos W=0.205u L=0.04u
M493 U483/net11 n521 U483/XI16-net11 VDD pmos W=0.205u L=0.04u
M494 U483/XI16-net11 n447 VDD VDD pmos W=0.205u L=0.04u
M495 n511 n447 VSS VSS nmos W=0.155u L=0.04u
M496 n511 n521 VSS VSS nmos W=0.155u L=0.04u
M497 n511 n445 U483/XI12-net17 VSS nmos W=0.155u L=0.04u
M498 U483/XI12-net17 N150 VSS VSS nmos W=0.155u L=0.04u
M499 n521 n443 U484/net10 VSS nmos W=0.155u L=0.04u
M500 U484/net10 n431 VSS VSS nmos W=0.155u L=0.04u
M501 n521 n449 U484/net10 VSS nmos W=0.155u L=0.04u
M502 U484/net10 n450 VSS VSS nmos W=0.155u L=0.04u
M503 U484/net30 n431 VDD VDD pmos W=0.205u L=0.04u
M504 n521 n443 U484/net24 VDD pmos W=0.205u L=0.04u
M505 U484/net24 n449 VDD VDD pmos W=0.205u L=0.04u
M506 n521 n450 U484/net30 VDD pmos W=0.205u L=0.04u
M507 n510 n522 VSS VSS nmos W=0.155u L=0.04u
M508 n510 N322 U485/XI17-net17 VSS nmos W=0.155u L=0.04u
M509 U485/XI17-net17 n437 VSS VSS nmos W=0.155u L=0.04u
M510 n510 N116 U485/XI10-net17 VSS nmos W=0.155u L=0.04u
M511 U485/XI10-net17 n436 VSS VSS nmos W=0.155u L=0.04u
M512 U485/net30 N116 n510 VDD pmos W=0.205u L=0.04u
M513 U485/net30 n436 n510 VDD pmos W=0.205u L=0.04u
M514 VDD n522 U485/net36 VDD pmos W=0.205u L=0.04u
M515 U485/net36 n437 U485/net30 VDD pmos W=0.205u L=0.04u
M516 U485/net36 N322 U485/net30 VDD pmos W=0.205u L=0.04u
M517 n522 n523 U486/net27 VSS nmos W=0.155u L=0.04u
M518 U486/net39 n458 VSS VSS nmos W=0.155u L=0.04u
M519 U486/net27 n441 U486/net39 VSS nmos W=0.155u L=0.04u
M520 U486/net27 n524 U486/net39 VSS nmos W=0.155u L=0.04u
M521 n522 n439 U486/net27 VSS nmos W=0.155u L=0.04u
M522 U486/net39 n444 VSS VSS nmos W=0.155u L=0.04u
M523 n522 n458 U486/net46 VDD pmos W=0.205u L=0.04u
M524 U486/net46 n444 VDD VDD pmos W=0.205u L=0.04u
M525 n522 n439 U486/net34 VDD pmos W=0.205u L=0.04u
M526 U486/net34 n523 VDD VDD pmos W=0.205u L=0.04u
M527 n522 n524 U486/net37 VDD pmos W=0.205u L=0.04u
M528 U486/net37 n441 VDD VDD pmos W=0.205u L=0.04u
M529 U487/net11 N317 n509 VDD pmos W=0.205u L=0.04u
M530 U487/net11 n445 n509 VDD pmos W=0.205u L=0.04u
M531 U487/net11 n525 U487/XI16-net11 VDD pmos W=0.205u L=0.04u
M532 U487/XI16-net11 n457 VDD VDD pmos W=0.205u L=0.04u
M533 n509 n457 VSS VSS nmos W=0.155u L=0.04u
M534 n509 n525 VSS VSS nmos W=0.155u L=0.04u
M535 n509 N317 U487/XI12-net17 VSS nmos W=0.155u L=0.04u
M536 U487/XI12-net17 n445 VSS VSS nmos W=0.155u L=0.04u
M537 n525 n450 U488/net10 VSS nmos W=0.155u L=0.04u
M538 U488/net10 n526 VSS VSS nmos W=0.155u L=0.04u
M539 n525 n454 U488/net10 VSS nmos W=0.155u L=0.04u
M540 U488/net10 n449 VSS VSS nmos W=0.155u L=0.04u
M541 U488/net30 n526 VDD VDD pmos W=0.205u L=0.04u
M542 n525 n450 U488/net24 VDD pmos W=0.205u L=0.04u
M543 U488/net24 n454 VDD VDD pmos W=0.205u L=0.04u
M544 n525 n449 U488/net30 VDD pmos W=0.205u L=0.04u
M545 U489/net19 n504 VSS VSS nmos W=0.155u L=0.04u
M546 n502 n504 U489/net40 VSS nmos W=0.155u L=0.04u
M547 n502 U489/net19 U489/net36 VSS nmos W=0.155u L=0.04u
M548 U489/net40 n528 VSS VSS nmos W=0.31u L=0.04u
M549 U489/net36 n527 VSS VSS nmos W=0.155u L=0.04u
M550 U489/net19 n504 VDD VDD pmos W=0.205u L=0.04u
M551 n502 U489/net19 U489/net26 VDD pmos W=0.325u L=0.04u
M552 U489/net26 n528 VDD VDD pmos W=0.41u L=0.04u
M553 n502 n504 U489/net30 VDD pmos W=0.325u L=0.04u
M554 U489/net30 n527 VDD VDD pmos W=0.205u L=0.04u
M555 n528 n529 VSS VSS nmos W=0.155u L=0.04u
M556 n528 n527 VSS VSS nmos W=0.155u L=0.04u
M557 U490/XI1-net8 n527 VDD VDD pmos W=0.205u L=0.04u
M558 n528 n529 U490/XI1-net8 VDD pmos W=0.205u L=0.04u
M559 N5050 n530 U491/net26 VSS nmos W=0.155u L=0.04u