.SUBCKT c499 N1 N5 N9 N13 N17 N21 N25 N29 N33 N37 N41 N45 N49 N53 N57 N61 N65 N69 N73 N77 N81 N85 N89 N93 N97 N101 N105 N109 N113 N117 N121 N125 N129 N130 N131 N132 N133 N134 N135 N136 N137 N724 N725 N726 N727 N728 N729 N730 N731 N732 N733 N734 N735 N736 N737 N738 N739 N740 N741 N742 N743 N744 N745 N746 N747 N748 N749 N750 N751 N752 N753 N754 N755 VDD VSS 
M1 U129/net4 n97 U129/net14 VSS nmos W=0.155u L=0.04u
M2 U129/net6 U129/net10 U129/net14 VSS nmos W=0.17u L=0.04u
M3 U129/net4 N125 VSS VSS nmos W=0.155u L=0.04u
M4 U129/net6 U129/net4 VSS VSS nmos W=0.17u L=0.04u
M5 N755 U129/net14 VSS VSS nmos W=0.155u L=0.04u
M6 U129/net10 n97 VSS VSS nmos W=0.155u L=0.04u
M7 U129/net4 U129/net10 U129/net14 VDD pmos W=0.255u L=0.04u
M8 U129/net6 n97 U129/net14 VDD pmos W=0.28u L=0.04u
M9 U129/net4 N125 VDD VDD pmos W=0.205u L=0.04u
M10 U129/net6 U129/net4 VDD VDD pmos W=0.24u L=0.04u
M11 N755 U129/net14 VDD VDD pmos W=0.205u L=0.04u
M12 U129/net10 n97 VDD VDD pmos W=0.205u L=0.04u
M13 U130/XU1-net6 n99 VSS VSS nmos W=0.155u L=0.04u
M14 n97 n98 U130/XU1-net6 VSS nmos W=0.155u L=0.04u
M15 n97 n99 VDD VDD pmos W=0.155u L=0.04u
M16 n97 n98 VDD VDD pmos W=0.155u L=0.04u
M17 U131/net4 n100 U131/net14 VSS nmos W=0.155u L=0.04u
M18 U131/net6 U131/net10 U131/net14 VSS nmos W=0.17u L=0.04u
M19 U131/net4 N121 VSS VSS nmos W=0.155u L=0.04u
M20 U131/net6 U131/net4 VSS VSS nmos W=0.17u L=0.04u
M21 N754 U131/net14 VSS VSS nmos W=0.155u L=0.04u
M22 U131/net10 n100 VSS VSS nmos W=0.155u L=0.04u
M23 U131/net4 U131/net10 U131/net14 VDD pmos W=0.255u L=0.04u
M24 U131/net6 n100 U131/net14 VDD pmos W=0.28u L=0.04u
M25 U131/net4 N121 VDD VDD pmos W=0.205u L=0.04u
M26 U131/net6 U131/net4 VDD VDD pmos W=0.24u L=0.04u
M27 N754 U131/net14 VDD VDD pmos W=0.205u L=0.04u
M28 U131/net10 n100 VDD VDD pmos W=0.205u L=0.04u
M29 U132/XU1-net6 n101 VSS VSS nmos W=0.155u L=0.04u
M30 n100 n98 U132/XU1-net6 VSS nmos W=0.155u L=0.04u
M31 n100 n101 VDD VDD pmos W=0.155u L=0.04u
M32 n100 n98 VDD VDD pmos W=0.155u L=0.04u
M33 U133/net4 n102 U133/net14 VSS nmos W=0.155u L=0.04u
M34 U133/net6 U133/net10 U133/net14 VSS nmos W=0.17u L=0.04u
M35 U133/net4 N117 VSS VSS nmos W=0.155u L=0.04u
M36 U133/net6 U133/net4 VSS VSS nmos W=0.17u L=0.04u
M37 N753 U133/net14 VSS VSS nmos W=0.155u L=0.04u
M38 U133/net10 n102 VSS VSS nmos W=0.155u L=0.04u
M39 U133/net4 U133/net10 U133/net14 VDD pmos W=0.255u L=0.04u
M40 U133/net6 n102 U133/net14 VDD pmos W=0.28u L=0.04u
M41 U133/net4 N117 VDD VDD pmos W=0.205u L=0.04u
M42 U133/net6 U133/net4 VDD VDD pmos W=0.24u L=0.04u
M43 N753 U133/net14 VDD VDD pmos W=0.205u L=0.04u
M44 U133/net10 n102 VDD VDD pmos W=0.205u L=0.04u
M45 U134/XU1-net6 n103 VSS VSS nmos W=0.155u L=0.04u
M46 n102 n98 U134/XU1-net6 VSS nmos W=0.155u L=0.04u
M47 n102 n103 VDD VDD pmos W=0.155u L=0.04u
M48 n102 n98 VDD VDD pmos W=0.155u L=0.04u
M49 U135/net4 n104 U135/net14 VSS nmos W=0.155u L=0.04u
M50 U135/net6 U135/net10 U135/net14 VSS nmos W=0.17u L=0.04u
M51 U135/net4 N113 VSS VSS nmos W=0.155u L=0.04u
M52 U135/net6 U135/net4 VSS VSS nmos W=0.17u L=0.04u
M53 N752 U135/net14 VSS VSS nmos W=0.155u L=0.04u
M54 U135/net10 n104 VSS VSS nmos W=0.155u L=0.04u
M55 U135/net4 U135/net10 U135/net14 VDD pmos W=0.255u L=0.04u
M56 U135/net6 n104 U135/net14 VDD pmos W=0.28u L=0.04u
M57 U135/net4 N113 VDD VDD pmos W=0.205u L=0.04u
M58 U135/net6 U135/net4 VDD VDD pmos W=0.24u L=0.04u
M59 N752 U135/net14 VDD VDD pmos W=0.205u L=0.04u
M60 U135/net10 n104 VDD VDD pmos W=0.205u L=0.04u
M61 U136/XU1-net6 n105 VSS VSS nmos W=0.155u L=0.04u
M62 n104 n98 U136/XU1-net6 VSS nmos W=0.155u L=0.04u
M63 n104 n105 VDD VDD pmos W=0.155u L=0.04u
M64 n104 n98 VDD VDD pmos W=0.155u L=0.04u
M65 n98 U137/net6 VSS VSS nmos W=0.155u L=0.04u
M66 U137/net6 n106 U137/XU30-net23 VSS nmos W=0.155u L=0.04u
M67 U137/XU30-net23 n107 U137/XU30-net26 VSS nmos W=0.155u L=0.04u
M68 U137/XU30-net26 n108 U137/XU30-net29 VSS nmos W=0.155u L=0.04u
M69 U137/XU30-net29 n109 VSS VSS nmos W=0.155u L=0.04u
M70 n98 U137/net6 VDD VDD pmos W=0.205u L=0.04u
M71 U137/net6 n109 VDD VDD pmos W=0.205u L=0.04u
M72 U137/net6 n108 VDD VDD pmos W=0.205u L=0.04u
M73 U137/net6 n107 VDD VDD pmos W=0.205u L=0.04u
M74 U137/net6 n106 VDD VDD pmos W=0.205u L=0.04u
M75 U138/net4 n110 U138/net14 VSS nmos W=0.155u L=0.04u
M76 U138/net6 U138/net10 U138/net14 VSS nmos W=0.17u L=0.04u
M77 U138/net4 N109 VSS VSS nmos W=0.155u L=0.04u
M78 U138/net6 U138/net4 VSS VSS nmos W=0.17u L=0.04u
M79 N751 U138/net14 VSS VSS nmos W=0.155u L=0.04u
M80 U138/net10 n110 VSS VSS nmos W=0.155u L=0.04u
M81 U138/net4 U138/net10 U138/net14 VDD pmos W=0.255u L=0.04u
M82 U138/net6 n110 U138/net14 VDD pmos W=0.28u L=0.04u
M83 U138/net4 N109 VDD VDD pmos W=0.205u L=0.04u
M84 U138/net6 U138/net4 VDD VDD pmos W=0.24u L=0.04u
M85 N751 U138/net14 VDD VDD pmos W=0.205u L=0.04u
M86 U138/net10 n110 VDD VDD pmos W=0.205u L=0.04u
M87 U139/XU1-net6 n99 VSS VSS nmos W=0.155u L=0.04u
M88 n110 n111 U139/XU1-net6 VSS nmos W=0.155u L=0.04u
M89 n110 n99 VDD VDD pmos W=0.155u L=0.04u
M90 n110 n111 VDD VDD pmos W=0.155u L=0.04u
M91 U140/net4 n112 U140/net14 VSS nmos W=0.155u L=0.04u
M92 U140/net6 U140/net10 U140/net14 VSS nmos W=0.17u L=0.04u
M93 U140/net4 N105 VSS VSS nmos W=0.155u L=0.04u
M94 U140/net6 U140/net4 VSS VSS nmos W=0.17u L=0.04u
M95 N750 U140/net14 VSS VSS nmos W=0.155u L=0.04u
M96 U140/net10 n112 VSS VSS nmos W=0.155u L=0.04u
M97 U140/net4 U140/net10 U140/net14 VDD pmos W=0.255u L=0.04u
M98 U140/net6 n112 U140/net14 VDD pmos W=0.28u L=0.04u
M99 U140/net4 N105 VDD VDD pmos W=0.205u L=0.04u
M100 U140/net6 U140/net4 VDD VDD pmos W=0.24u L=0.04u
M101 N750 U140/net14 VDD VDD pmos W=0.205u L=0.04u
M102 U140/net10 n112 VDD VDD pmos W=0.205u L=0.04u
M103 U141/XU1-net6 n101 VSS VSS nmos W=0.155u L=0.04u
M104 n112 n111 U141/XU1-net6 VSS nmos W=0.155u L=0.04u
M105 n112 n101 VDD VDD pmos W=0.155u L=0.04u
M106 n112 n111 VDD VDD pmos W=0.155u L=0.04u
M107 U142/net4 n113 U142/net14 VSS nmos W=0.155u L=0.04u
M108 U142/net6 U142/net10 U142/net14 VSS nmos W=0.17u L=0.04u
M109 U142/net4 N101 VSS VSS nmos W=0.155u L=0.04u
M110 U142/net6 U142/net4 VSS VSS nmos W=0.17u L=0.04u
M111 N749 U142/net14 VSS VSS nmos W=0.155u L=0.04u
M112 U142/net10 n113 VSS VSS nmos W=0.155u L=0.04u
M113 U142/net4 U142/net10 U142/net14 VDD pmos W=0.255u L=0.04u
M114 U142/net6 n113 U142/net14 VDD pmos W=0.28u L=0.04u
M115 U142/net4 N101 VDD VDD pmos W=0.205u L=0.04u
M116 U142/net6 U142/net4 VDD VDD pmos W=0.24u L=0.04u
M117 N749 U142/net14 VDD VDD pmos W=0.205u L=0.04u
M118 U142/net10 n113 VDD VDD pmos W=0.205u L=0.04u
M119 U143/XU1-net6 n103 VSS VSS nmos W=0.155u L=0.04u
M120 n113 n111 U143/XU1-net6 VSS nmos W=0.155u L=0.04u
M121 n113 n103 VDD VDD pmos W=0.155u L=0.04u
M122 n113 n111 VDD VDD pmos W=0.155u L=0.04u
M123 U144/net4 n114 U144/net14 VSS nmos W=0.155u L=0.04u
M124 U144/net6 U144/net10 U144/net14 VSS nmos W=0.17u L=0.04u
M125 U144/net4 N97 VSS VSS nmos W=0.155u L=0.04u
M126 U144/net6 U144/net4 VSS VSS nmos W=0.17u L=0.04u
M127 N748 U144/net14 VSS VSS nmos W=0.155u L=0.04u
M128 U144/net10 n114 VSS VSS nmos W=0.155u L=0.04u
M129 U144/net4 U144/net10 U144/net14 VDD pmos W=0.255u L=0.04u
M130 U144/net6 n114 U144/net14 VDD pmos W=0.28u L=0.04u
M131 U144/net4 N97 VDD VDD pmos W=0.205u L=0.04u
M132 U144/net6 U144/net4 VDD VDD pmos W=0.24u L=0.04u
M133 N748 U144/net14 VDD VDD pmos W=0.205u L=0.04u
M134 U144/net10 n114 VDD VDD pmos W=0.205u L=0.04u
M135 U145/XU1-net6 n105 VSS VSS nmos W=0.155u L=0.04u
M136 n114 n111 U145/XU1-net6 VSS nmos W=0.155u L=0.04u
M137 n114 n105 VDD VDD pmos W=0.155u L=0.04u
M138 n114 n111 VDD VDD pmos W=0.155u L=0.04u
M139 n111 U146/net6 VSS VSS nmos W=0.155u L=0.04u
M140 U146/net6 n115 U146/XU30-net23 VSS nmos W=0.155u L=0.04u
M141 U146/XU30-net23 n109 U146/XU30-net26 VSS nmos W=0.155u L=0.04u
M142 U146/XU30-net26 n116 U146/XU30-net29 VSS nmos W=0.155u L=0.04u
M143 U146/XU30-net29 n117 VSS VSS nmos W=0.155u L=0.04u
M144 n111 U146/net6 VDD VDD pmos W=0.205u L=0.04u
M145 U146/net6 n117 VDD VDD pmos W=0.205u L=0.04u
M146 U146/net6 n116 VDD VDD pmos W=0.205u L=0.04u
M147 U146/net6 n109 VDD VDD pmos W=0.205u L=0.04u
M148 U146/net6 n115 VDD VDD pmos W=0.205u L=0.04u
M149 n117 n118 VSS VSS nmos W=0.155u L=0.04u
M150 n117 n119 VSS VSS nmos W=0.155u L=0.04u
M151 U147/XI1-net8 n119 VDD VDD pmos W=0.205u L=0.04u
M152 n117 n118 U147/XI1-net8 VDD pmos W=0.205u L=0.04u
M153 U148/net4 n120 U148/net14 VSS nmos W=0.155u L=0.04u
M154 U148/net6 U148/net10 U148/net14 VSS nmos W=0.17u L=0.04u
M155 U148/net4 N93 VSS VSS nmos W=0.155u L=0.04u
M156 U148/net6 U148/net4 VSS VSS nmos W=0.17u L=0.04u
M157 N747 U148/net14 VSS VSS nmos W=0.155u L=0.04u
M158 U148/net10 n120 VSS VSS nmos W=0.155u L=0.04u
M159 U148/net4 U148/net10 U148/net14 VDD pmos W=0.255u L=0.04u
M160 U148/net6 n120 U148/net14 VDD pmos W=0.28u L=0.04u
M161 U148/net4 N93 VDD VDD pmos W=0.205u L=0.04u
M162 U148/net6 U148/net4 VDD VDD pmos W=0.24u L=0.04u
M163 N747 U148/net14 VDD VDD pmos W=0.205u L=0.04u
M164 U148/net10 n120 VDD VDD pmos W=0.205u L=0.04u
M165 U149/XU1-net6 n99 VSS VSS nmos W=0.155u L=0.04u
M166 n120 n121 U149/XU1-net6 VSS nmos W=0.155u L=0.04u
M167 n120 n99 VDD VDD pmos W=0.155u L=0.04u
M168 n120 n121 VDD VDD pmos W=0.155u L=0.04u
M169 U150/net4 n122 U150/net14 VSS nmos W=0.155u L=0.04u
M170 U150/net6 U150/net10 U150/net14 VSS nmos W=0.17u L=0.04u
M171 U150/net4 N89 VSS VSS nmos W=0.155u L=0.04u
M172 U150/net6 U150/net4 VSS VSS nmos W=0.17u L=0.04u
M173 N746 U150/net14 VSS VSS nmos W=0.155u L=0.04u
M174 U150/net10 n122 VSS VSS nmos W=0.155u L=0.04u
M175 U150/net4 U150/net10 U150/net14 VDD pmos W=0.255u L=0.04u
M176 U150/net6 n122 U150/net14 VDD pmos W=0.28u L=0.04u
M177 U150/net4 N89 VDD VDD pmos W=0.205u L=0.04u
M178 U150/net6 U150/net4 VDD VDD pmos W=0.24u L=0.04u
M179 N746 U150/net14 VDD VDD pmos W=0.205u L=0.04u
M180 U150/net10 n122 VDD VDD pmos W=0.205u L=0.04u
M181 U151/XU1-net6 n101 VSS VSS nmos W=0.155u L=0.04u
M182 n122 n121 U151/XU1-net6 VSS nmos W=0.155u L=0.04u
M183 n122 n101 VDD VDD pmos W=0.155u L=0.04u
M184 n122 n121 VDD VDD pmos W=0.155u L=0.04u
M185 U152/net4 n123 U152/net14 VSS nmos W=0.155u L=0.04u
M186 U152/net6 U152/net10 U152/net14 VSS nmos W=0.17u L=0.04u
M187 U152/net4 N85 VSS VSS nmos W=0.155u L=0.04u
M188 U152/net6 U152/net4 VSS VSS nmos W=0.17u L=0.04u
M189 N745 U152/net14 VSS VSS nmos W=0.155u L=0.04u
M190 U152/net10 n123 VSS VSS nmos W=0.155u L=0.04u
M191 U152/net4 U152/net10 U152/net14 VDD pmos W=0.255u L=0.04u
M192 U152/net6 n123 U152/net14 VDD pmos W=0.28u L=0.04u
M193 U152/net4 N85 VDD VDD pmos W=0.205u L=0.04u
M194 U152/net6 U152/net4 VDD VDD pmos W=0.24u L=0.04u
M195 N745 U152/net14 VDD VDD pmos W=0.205u L=0.04u
M196 U152/net10 n123 VDD VDD pmos W=0.205u L=0.04u
M197 U153/XU1-net6 n103 VSS VSS nmos W=0.155u L=0.04u
M198 n123 n121 U153/XU1-net6 VSS nmos W=0.155u L=0.04u
M199 n123 n103 VDD VDD pmos W=0.155u L=0.04u
M200 n123 n121 VDD VDD pmos W=0.155u L=0.04u
M201 U154/net4 n124 U154/net14 VSS nmos W=0.155u L=0.04u
M202 U154/net6 U154/net10 U154/net14 VSS nmos W=0.17u L=0.04u
M203 U154/net4 N81 VSS VSS nmos W=0.155u L=0.04u
M204 U154/net6 U154/net4 VSS VSS nmos W=0.17u L=0.04u
M205 N744 U154/net14 VSS VSS nmos W=0.155u L=0.04u
M206 U154/net10 n124 VSS VSS nmos W=0.155u L=0.04u
M207 U154/net4 U154/net10 U154/net14 VDD pmos W=0.255u L=0.04u
M208 U154/net6 n124 U154/net14 VDD pmos W=0.28u L=0.04u
M209 U154/net4 N81 VDD VDD pmos W=0.205u L=0.04u
M210 U154/net6 U154/net4 VDD VDD pmos W=0.24u L=0.04u
M211 N744 U154/net14 VDD VDD pmos W=0.205u L=0.04u
M212 U154/net10 n124 VDD VDD pmos W=0.205u L=0.04u
M213 U155/XU1-net6 n105 VSS VSS nmos W=0.155u L=0.04u
M214 n124 n121 U155/XU1-net6 VSS nmos W=0.155u L=0.04u
M215 n124 n105 VDD VDD pmos W=0.155u L=0.04u
M216 n124 n121 VDD VDD pmos W=0.155u L=0.04u
M217 n121 U156/net6 VSS VSS nmos W=0.155u L=0.04u
M218 U156/net6 n119 U156/XU30-net23 VSS nmos W=0.155u L=0.04u
M219 U156/XU30-net23 n109 U156/XU30-net26 VSS nmos W=0.155u L=0.04u
M220 U156/XU30-net26 n118 U156/XU30-net29 VSS nmos W=0.155u L=0.04u
M221 U156/XU30-net29 n125 VSS VSS nmos W=0.155u L=0.04u
M222 n121 U156/net6 VDD VDD pmos W=0.205u L=0.04u
M223 U156/net6 n125 VDD VDD pmos W=0.205u L=0.04u
M224 U156/net6 n118 VDD VDD pmos W=0.205u L=0.04u
M225 U156/net6 n109 VDD VDD pmos W=0.205u L=0.04u
M226 U156/net6 n119 VDD VDD pmos W=0.205u L=0.04u
M227 n125 n116 VSS VSS nmos W=0.155u L=0.04u
M228 n125 n115 VSS VSS nmos W=0.155u L=0.04u
M229 U157/XI1-net8 n115 VDD VDD pmos W=0.205u L=0.04u
M230 n125 n116 U157/XI1-net8 VDD pmos W=0.205u L=0.04u
M231 U158/net4 n126 U158/net14 VSS nmos W=0.155u L=0.04u
M232 U158/net6 U158/net10 U158/net14 VSS nmos W=0.17u L=0.04u
M233 U158/net4 N77 VSS VSS nmos W=0.155u L=0.04u
M234 U158/net6 U158/net4 VSS VSS nmos W=0.17u L=0.04u
M235 N743 U158/net14 VSS VSS nmos W=0.155u L=0.04u
M236 U158/net10 n126 VSS VSS nmos W=0.155u L=0.04u
M237 U158/net4 U158/net10 U158/net14 VDD pmos W=0.255u L=0.04u
M238 U158/net6 n126 U158/net14 VDD pmos W=0.28u L=0.04u
M239 U158/net4 N77 VDD VDD pmos W=0.205u L=0.04u
M240 U158/net6 U158/net4 VDD VDD pmos W=0.24u L=0.04u
M241 N743 U158/net14 VDD VDD pmos W=0.205u L=0.04u
M242 U158/net10 n126 VDD VDD pmos W=0.205u L=0.04u
M243 U159/XU1-net6 n99 VSS VSS nmos W=0.155u L=0.04u
M244 n126 n127 U159/XU1-net6 VSS nmos W=0.155u L=0.04u
M245 n126 n99 VDD VDD pmos W=0.155u L=0.04u
M246 n126 n127 VDD VDD pmos W=0.155u L=0.04u
M247 U160/net4 n128 U160/net14 VSS nmos W=0.155u L=0.04u
M248 U160/net6 U160/net10 U160/net14 VSS nmos W=0.17u L=0.04u
M249 U160/net4 N73 VSS VSS nmos W=0.155u L=0.04u
M250 U160/net6 U160/net4 VSS VSS nmos W=0.17u L=0.04u
M251 N742 U160/net14 VSS VSS nmos W=0.155u L=0.04u
M252 U160/net10 n128 VSS VSS nmos W=0.155u L=0.04u
M253 U160/net4 U160/net10 U160/net14 VDD pmos W=0.255u L=0.04u
M254 U160/net6 n128 U160/net14 VDD pmos W=0.28u L=0.04u
M255 U160/net4 N73 VDD VDD pmos W=0.205u L=0.04u
M256 U160/net6 U160/net4 VDD VDD pmos W=0.24u L=0.04u
M257 N742 U160/net14 VDD VDD pmos W=0.205u L=0.04u
M258 U160/net10 n128 VDD VDD pmos W=0.205u L=0.04u
M259 U161/XU1-net6 n101 VSS VSS nmos W=0.155u L=0.04u
M260 n128 n127 U161/XU1-net6 VSS nmos W=0.155u L=0.04u
M261 n128 n101 VDD VDD pmos W=0.155u L=0.04u
M262 n128 n127 VDD VDD pmos W=0.155u L=0.04u
M263 U162/net4 n129 U162/net14 VSS nmos W=0.155u L=0.04u
M264 U162/net6 U162/net10 U162/net14 VSS nmos W=0.17u L=0.04u
M265 U162/net4 N69 VSS VSS nmos W=0.155u L=0.04u
M266 U162/net6 U162/net4 VSS VSS nmos W=0.17u L=0.04u
M267 N741 U162/net14 VSS VSS nmos W=0.155u L=0.04u
M268 U162/net10 n129 VSS VSS nmos W=0.155u L=0.04u
M269 U162/net4 U162/net10 U162/net14 VDD pmos W=0.255u L=0.04u
M270 U162/net6 n129 U162/net14 VDD pmos W=0.28u L=0.04u
M271 U162/net4 N69 VDD VDD pmos W=0.205u L=0.04u
M272 U162/net6 U162/net4 VDD VDD pmos W=0.24u L=0.04u
M273 N741 U162/net14 VDD VDD pmos W=0.205u L=0.04u
M274 U162/net10 n129 VDD VDD pmos W=0.205u L=0.04u
M275 U163/XU1-net6 n103 VSS VSS nmos W=0.155u L=0.04u
M276 n129 n127 U163/XU1-net6 VSS nmos W=0.155u L=0.04u
M277 n129 n103 VDD VDD pmos W=0.155u L=0.04u
M278 n129 n127 VDD VDD pmos W=0.155u L=0.04u
M279 U164/net4 n130 U164/net14 VSS nmos W=0.155u L=0.04u
M280 U164/net6 U164/net10 U164/net14 VSS nmos W=0.17u L=0.04u
M281 U164/net4 N65 VSS VSS nmos W=0.155u L=0.04u
M282 U164/net6 U164/net4 VSS VSS nmos W=0.17u L=0.04u
M283 N740 U164/net14 VSS VSS nmos W=0.155u L=0.04u
M284 U164/net10 n130 VSS VSS nmos W=0.155u L=0.04u
M285 U164/net4 U164/net10 U164/net14 VDD pmos W=0.255u L=0.04u
M286 U164/net6 n130 U164/net14 VDD pmos W=0.28u L=0.04u
M287 U164/net4 N65 VDD VDD pmos W=0.205u L=0.04u
M288 U164/net6 U164/net4 VDD VDD pmos W=0.24u L=0.04u
M289 N740 U164/net14 VDD VDD pmos W=0.205u L=0.04u
M290 U164/net10 n130 VDD VDD pmos W=0.205u L=0.04u
M291 U165/XU1-net6 n105 VSS VSS nmos W=0.155u L=0.04u
M292 n130 n127 U165/XU1-net6 VSS nmos W=0.155u L=0.04u
M293 n130 n105 VDD VDD pmos W=0.155u L=0.04u
M294 n130 n127 VDD VDD pmos W=0.155u L=0.04u
M295 n127 U166/net6 VSS VSS nmos W=0.155u L=0.04u
M296 U166/net6 n131 U166/XU30-net23 VSS nmos W=0.155u L=0.04u
M297 U166/XU30-net23 n132 U166/XU30-net26 VSS nmos W=0.155u L=0.04u
M298 U166/XU30-net26 n133 U166/XU30-net29 VSS nmos W=0.155u L=0.04u
M299 U166/XU30-net29 n109 VSS VSS nmos W=0.155u L=0.04u
M300 n127 U166/net6 VDD VDD pmos W=0.205u L=0.04u
M301 U166/net6 n109 VDD VDD pmos W=0.205u L=0.04u
M302 U166/net6 n133 VDD VDD pmos W=0.205u L=0.04u
M303 U166/net6 n132 VDD VDD pmos W=0.205u L=0.04u
M304 U166/net6 n131 VDD VDD pmos W=0.205u L=0.04u
M305 U167/net15 n135 VSS VSS nmos W=0.155u L=0.04u
M306 U167/net15 n99 VSS VSS nmos W=0.155u L=0.04u
M307 n109 n105 U167/net15 VSS nmos W=0.155u L=0.04u
M308 n109 n134 U167/net15 VSS nmos W=0.155u L=0.04u
M309 U167/net15 n103 VSS VSS nmos W=0.155u L=0.04u
M310 n109 n101 U167/net15 VSS nmos W=0.155u L=0.04u
M311 n109 n103 U167/XI1-net11 VDD pmos W=0.205u L=0.04u
M312 U167/XI1-net11 n135 U167/XI1-net18 VDD pmos W=0.205u L=0.04u
M313 U167/XI1-net18 n99 VDD VDD pmos W=0.205u L=0.04u
M314 n109 n105 U167/XI7-net11 VDD pmos W=0.205u L=0.04u
M315 U167/XI7-net11 n134 U167/XI7-net18 VDD pmos W=0.205u L=0.04u
M316 U167/XI7-net18 n101 VDD VDD pmos W=0.205u L=0.04u
M317 U168/net4 n136 U168/net14 VSS nmos W=0.155u L=0.04u
M318 U168/net6 U168/net10 U168/net14 VSS nmos W=0.17u L=0.04u
M319 U168/net4 N61 VSS VSS nmos W=0.155u L=0.04u
M320 U168/net6 U168/net4 VSS VSS nmos W=0.17u L=0.04u
M321 N739 U168/net14 VSS VSS nmos W=0.155u L=0.04u
M322 U168/net10 n136 VSS VSS nmos W=0.155u L=0.04u
M323 U168/net4 U168/net10 U168/net14 VDD pmos W=0.255u L=0.04u
M324 U168/net6 n136 U168/net14 VDD pmos W=0.28u L=0.04u
M325 U168/net4 N61 VDD VDD pmos W=0.205u L=0.04u
M326 U168/net6 U168/net4 VDD VDD pmos W=0.24u L=0.04u
M327 N739 U168/net14 VDD VDD pmos W=0.205u L=0.04u
M328 U168/net10 n136 VDD VDD pmos W=0.205u L=0.04u
M329 U169/XU1-net6 n119 VSS VSS nmos W=0.155u L=0.04u
M330 n136 n137 U169/XU1-net6 VSS nmos W=0.155u L=0.04u
M331 n136 n119 VDD VDD pmos W=0.155u L=0.04u
M332 n136 n137 VDD VDD pmos W=0.155u L=0.04u
M333 U170/net4 n138 U170/net14 VSS nmos W=0.155u L=0.04u
M334 U170/net6 U170/net10 U170/net14 VSS nmos W=0.17u L=0.04u
M335 U170/net4 N57 VSS VSS nmos W=0.155u L=0.04u
M336 U170/net6 U170/net4 VSS VSS nmos W=0.17u L=0.04u
M337 N738 U170/net14 VSS VSS nmos W=0.155u L=0.04u
M338 U170/net10 n138 VSS VSS nmos W=0.155u L=0.04u
M339 U170/net4 U170/net10 U170/net14 VDD pmos W=0.255u L=0.04u
M340 U170/net6 n138 U170/net14 VDD pmos W=0.28u L=0.04u
M341 U170/net4 N57 VDD VDD pmos W=0.205u L=0.04u
M342 U170/net6 U170/net4 VDD VDD pmos W=0.24u L=0.04u
M343 N738 U170/net14 VDD VDD pmos W=0.205u L=0.04u
M344 U170/net10 n138 VDD VDD pmos W=0.205u L=0.04u
M345 U171/XU1-net6 n116 VSS VSS nmos W=0.155u L=0.04u
M346 n138 n137 U171/XU1-net6 VSS nmos W=0.155u L=0.04u
M347 n138 n116 VDD VDD pmos W=0.155u L=0.04u
M348 n138 n137 VDD VDD pmos W=0.155u L=0.04u
M349 U172/net4 n139 U172/net14 VSS nmos W=0.155u L=0.04u
M350 U172/net6 U172/net10 U172/net14 VSS nmos W=0.17u L=0.04u
M351 U172/net4 N53 VSS VSS nmos W=0.155u L=0.04u
M352 U172/net6 U172/net4 VSS VSS nmos W=0.17u L=0.04u
M353 N737 U172/net14 VSS VSS nmos W=0.155u L=0.04u
M354 U172/net10 n139 VSS VSS nmos W=0.155u L=0.04u
M355 U172/net4 U172/net10 U172/net14 VDD pmos W=0.255u L=0.04u
M356 U172/net6 n139 U172/net14 VDD pmos W=0.28u L=0.04u
M357 U172/net4 N53 VDD VDD pmos W=0.205u L=0.04u
M358 U172/net6 U172/net4 VDD VDD pmos W=0.24u L=0.04u
M359 N737 U172/net14 VDD VDD pmos W=0.205u L=0.04u
M360 U172/net10 n139 VDD VDD pmos W=0.205u L=0.04u
M361 U173/XU1-net6 n115 VSS VSS nmos W=0.155u L=0.04u
M362 n139 n137 U173/XU1-net6 VSS nmos W=0.155u L=0.04u
M363 n139 n115 VDD VDD pmos W=0.155u L=0.04u
M364 n139 n137 VDD VDD pmos W=0.155u L=0.04u
M365 U174/net4 n140 U174/net14 VSS nmos W=0.155u L=0.04u
M366 U174/net6 U174/net10 U174/net14 VSS nmos W=0.17u L=0.04u
M367 U174/net4 N49 VSS VSS nmos W=0.155u L=0.04u
M368 U174/net6 U174/net4 VSS VSS nmos W=0.17u L=0.04u
M369 N736 U174/net14 VSS VSS nmos W=0.155u L=0.04u
M370 U174/net10 n140 VSS VSS nmos W=0.155u L=0.04u
M371 U174/net4 U174/net10 U174/net14 VDD pmos W=0.255u L=0.04u
M372 U174/net6 n140 U174/net14 VDD pmos W=0.28u L=0.04u
M373 U174/net4 N49 VDD VDD pmos W=0.205u L=0.04u
M374 U174/net6 U174/net4 VDD VDD pmos W=0.24u L=0.04u
M375 N736 U174/net14 VDD VDD pmos W=0.205u L=0.04u
M376 U174/net10 n140 VDD VDD pmos W=0.205u L=0.04u
M377 U175/XU1-net6 n118 VSS VSS nmos W=0.155u L=0.04u
M378 n140 n137 U175/XU1-net6 VSS nmos W=0.155u L=0.04u
M379 n140 n118 VDD VDD pmos W=0.155u L=0.04u
M380 n140 n137 VDD VDD pmos W=0.155u L=0.04u
M381 n137 U176/net6 VSS VSS nmos W=0.155u L=0.04u
M382 U176/net6 n141 U176/XU30-net23 VSS nmos W=0.155u L=0.04u
M383 U176/XU30-net23 n134 U176/XU30-net26 VSS nmos W=0.155u L=0.04u
M384 U176/XU30-net26 n142 U176/XU30-net29 VSS nmos W=0.155u L=0.04u
M385 U176/XU30-net29 n143 VSS VSS nmos W=0.155u L=0.04u
M386 n137 U176/net6 VDD VDD pmos W=0.205u L=0.04u
M387 U176/net6 n143 VDD VDD pmos W=0.205u L=0.04u
M388 U176/net6 n142 VDD VDD pmos W=0.205u L=0.04u
M389 U176/net6 n134 VDD VDD pmos W=0.205u L=0.04u
M390 U176/net6 n141 VDD VDD pmos W=0.205u L=0.04u
M391 n134 n144 VSS VSS nmos W=0.155u L=0.04u
M392 n134 n145 VSS VSS nmos W=0.155u L=0.04u
M393 U177/XI1-net8 n145 VDD VDD pmos W=0.205u L=0.04u
M394 n134 n144 U177/XI1-net8 VDD pmos W=0.205u L=0.04u
M395 U178/net4 n146 U178/net14 VSS nmos W=0.155u L=0.04u
M396 U178/net6 U178/net10 U178/net14 VSS nmos W=0.17u L=0.04u
M397 U178/net4 N45 VSS VSS nmos W=0.155u L=0.04u
M398 U178/net6 U178/net4 VSS VSS nmos W=0.17u L=0.04u
M399 N735 U178/net14 VSS VSS nmos W=0.155u L=0.04u
M400 U178/net10 n146 VSS VSS nmos W=0.155u L=0.04u
M401 U178/net4 U178/net10 U178/net14 VDD pmos W=0.255u L=0.04u
M402 U178/net6 n146 U178/net14 VDD pmos W=0.28u L=0.04u
M403 U178/net4 N45 VDD VDD pmos W=0.205u L=0.04u
M404 U178/net6 U178/net4 VDD VDD pmos W=0.24u L=0.04u
M405 N735 U178/net14 VDD VDD pmos W=0.205u L=0.04u
M406 U178/net10 n146 VDD VDD pmos W=0.205u L=0.04u
M407 U179/XU1-net6 n119 VSS VSS nmos W=0.155u L=0.04u
M408 n146 n147 U179/XU1-net6 VSS nmos W=0.155u L=0.04u
M409 n146 n119 VDD VDD pmos W=0.155u L=0.04u
M410 n146 n147 VDD VDD pmos W=0.155u L=0.04u
M411 U180/net4 n148 U180/net14 VSS nmos W=0.155u L=0.04u
M412 U180/net6 U180/net10 U180/net14 VSS nmos W=0.17u L=0.04u
M413 U180/net4 N41 VSS VSS nmos W=0.155u L=0.04u
M414 U180/net6 U180/net4 VSS VSS nmos W=0.17u L=0.04u
M415 N734 U180/net14 VSS VSS nmos W=0.155u L=0.04u
M416 U180/net10 n148 VSS VSS nmos W=0.155u L=0.04u
M417 U180/net4 U180/net10 U180/net14 VDD pmos W=0.255u L=0.04u
M418 U180/net6 n148 U180/net14 VDD pmos W=0.28u L=0.04u
M419 U180/net4 N41 VDD VDD pmos W=0.205u L=0.04u
M420 U180/net6 U180/net4 VDD VDD pmos W=0.24u L=0.04u
M421 N734 U180/net14 VDD VDD pmos W=0.205u L=0.04u
M422 U180/net10 n148 VDD VDD pmos W=0.205u L=0.04u
M423 U181/XU1-net6 n116 VSS VSS nmos W=0.155u L=0.04u
M424 n148 n147 U181/XU1-net6 VSS nmos W=0.155u L=0.04u
M425 n148 n116 VDD VDD pmos W=0.155u L=0.04u
M426 n148 n147 VDD VDD pmos W=0.155u L=0.04u
M427 U182/net4 n149 U182/net14 VSS nmos W=0.155u L=0.04u
M428 U182/net6 U182/net10 U182/net14 VSS nmos W=0.17u L=0.04u
M429 U182/net4 N37 VSS VSS nmos W=0.155u L=0.04u
M430 U182/net6 U182/net4 VSS VSS nmos W=0.17u L=0.04u
M431 N733 U182/net14 VSS VSS nmos W=0.155u L=0.04u
M432 U182/net10 n149 VSS VSS nmos W=0.155u L=0.04u
M433 U182/net4 U182/net10 U182/net14 VDD pmos W=0.255u L=0.04u
M434 U182/net6 n149 U182/net14 VDD pmos W=0.28u L=0.04u
M435 U182/net4 N37 VDD VDD pmos W=0.205u L=0.04u
M436 U182/net6 U182/net4 VDD VDD pmos W=0.24u L=0.04u
M437 N733 U182/net14 VDD VDD pmos W=0.205u L=0.04u
M438 U182/net10 n149 VDD VDD pmos W=0.205u L=0.04u
M439 U183/XU1-net6 n115 VSS VSS nmos W=0.155u L=0.04u
M440 n149 n147 U183/XU1-net6 VSS nmos W=0.155u L=0.04u
M441 n149 n115 VDD VDD pmos W=0.155u L=0.04u
M442 n149 n147 VDD VDD pmos W=0.155u L=0.04u
M443 U184/net4 n150 U184/net14 VSS nmos W=0.155u L=0.04u
M444 U184/net6 U184/net10 U184/net14 VSS nmos W=0.17u L=0.04u
M445 U184/net4 N33 VSS VSS nmos W=0.155u L=0.04u
M446 U184/net6 U184/net4 VSS VSS nmos W=0.17u L=0.04u
M447 N732 U184/net14 VSS VSS nmos W=0.155u L=0.04u
M448 U184/net10 n150 VSS VSS nmos W=0.155u L=0.04u
M449 U184/net4 U184/net10 U184/net14 VDD pmos W=0.255u L=0.04u
M450 U184/net6 n150 U184/net14 VDD pmos W=0.28u L=0.04u
M451 U184/net4 N33 VDD VDD pmos W=0.205u L=0.04u
M452 U184/net6 U184/net4 VDD VDD pmos W=0.24u L=0.04u
M453 N732 U184/net14 VDD VDD pmos W=0.205u L=0.04u
M454 U184/net10 n150 VDD VDD pmos W=0.205u L=0.04u
M455 U185/XU1-net6 n118 VSS VSS nmos W=0.155u L=0.04u
M456 n150 n147 U185/XU1-net6 VSS nmos W=0.155u L=0.04u
M457 n150 n118 VDD VDD pmos W=0.155u L=0.04u
M458 n150 n147 VDD VDD pmos W=0.155u L=0.04u
M459 n147 U186/net6 VSS VSS nmos W=0.155u L=0.04u
M460 U186/net6 n101 U186/XU30-net23 VSS nmos W=0.155u L=0.04u
M461 U186/XU30-net23 n143 U186/XU30-net26 VSS nmos W=0.155u L=0.04u
M462 U186/XU30-net26 n103 U186/XU30-net29 VSS nmos W=0.155u L=0.04u
M463 U186/XU30-net29 n151 VSS VSS nmos W=0.155u L=0.04u
M464 n147 U186/net6 VDD VDD pmos W=0.205u L=0.04u
M465 U186/net6 n151 VDD VDD pmos W=0.205u L=0.04u
M466 U186/net6 n103 VDD VDD pmos W=0.205u L=0.04u
M467 U186/net6 n143 VDD VDD pmos W=0.205u L=0.04u
M468 U186/net6 n101 VDD VDD pmos W=0.205u L=0.04u
M469 n151 n99 VSS VSS nmos W=0.155u L=0.04u
M470 n151 n105 VSS VSS nmos W=0.155u L=0.04u
M471 U187/XI1-net8 n105 VDD VDD pmos W=0.205u L=0.04u
M472 n151 n99 U187/XI1-net8 VDD pmos W=0.205u L=0.04u
M473 U188/net4 n152 U188/net14 VSS nmos W=0.155u L=0.04u
M474 U188/net6 U188/net10 U188/net14 VSS nmos W=0.17u L=0.04u
M475 U188/net4 N29 VSS VSS nmos W=0.155u L=0.04u
M476 U188/net6 U188/net4 VSS VSS nmos W=0.17u L=0.04u
M477 N731 U188/net14 VSS VSS nmos W=0.155u L=0.04u
M478 U188/net10 n152 VSS VSS nmos W=0.155u L=0.04u
M479 U188/net4 U188/net10 U188/net14 VDD pmos W=0.255u L=0.04u
M480 U188/net6 n152 U188/net14 VDD pmos W=0.28u L=0.04u
M481 U188/net4 N29 VDD VDD pmos W=0.205u L=0.04u
M482 U188/net6 U188/net4 VDD VDD pmos W=0.24u L=0.04u
M483 N731 U188/net14 VDD VDD pmos W=0.205u L=0.04u
M484 U188/net10 n152 VDD VDD pmos W=0.205u L=0.04u
M485 U189/XU1-net6 n119 VSS VSS nmos W=0.155u L=0.04u
M486 n152 n153 U189/XU1-net6 VSS nmos W=0.155u L=0.04u
M487 n152 n119 VDD VDD pmos W=0.155u L=0.04u
M488 n152 n153 VDD VDD pmos W=0.155u L=0.04u
M489 U190/net4 n154 U190/net14 VSS nmos W=0.155u L=0.04u
M490 U190/net6 U190/net10 U190/net14 VSS nmos W=0.17u L=0.04u
M491 U190/net4 N25 VSS VSS nmos W=0.155u L=0.04u
M492 U190/net6 U190/net4 VSS VSS nmos W=0.17u L=0.04u
M493 N730 U190/net14 VSS VSS nmos W=0.155u L=0.04u
M494 U190/net10 n154 VSS VSS nmos W=0.155u L=0.04u
M495 U190/net4 U190/net10 U190/net14 VDD pmos W=0.255u L=0.04u
M496 U190/net6 n154 U190/net14 VDD pmos W=0.28u L=0.04u
M497 U190/net4 N25 VDD VDD pmos W=0.205u L=0.04u
M498 U190/net6 U190/net4 VDD VDD pmos W=0.24u L=0.04u
M499 N730 U190/net14 VDD VDD pmos W=0.205u L=0.04u
M500 U190/net10 n154 VDD VDD pmos W=0.205u L=0.04u
M501 U191/XU1-net6 n116 VSS VSS nmos W=0.155u L=0.04u
M502 n154 n153 U191/XU1-net6 VSS nmos W=0.155u L=0.04u
M503 n154 n116 VDD VDD pmos W=0.155u L=0.04u
M504 n154 n153 VDD VDD pmos W=0.155u L=0.04u
M505 U192/net4 n155 U192/net14 VSS nmos W=0.155u L=0.04u
M506 U192/net6 U192/net10 U192/net14 VSS nmos W=0.17u L=0.04u
M507 U192/net4 N21 VSS VSS nmos W=0.155u L=0.04u
M508 U192/net6 U192/net4 VSS VSS nmos W=0.17u L=0.04u
M509 N729 U192/net14 VSS VSS nmos W=0.155u L=0.04u
M510 U192/net10 n155 VSS VSS nmos W=0.155u L=0.04u
M511 U192/net4 U192/net10 U192/net14 VDD pmos W=0.255u L=0.04u
M512 U192/net6 n155 U192/net14 VDD pmos W=0.28u L=0.04u
M513 U192/net4 N21 VDD VDD pmos W=0.205u L=0.04u
M514 U192/net6 U192/net4 VDD VDD pmos W=0.24u L=0.04u
M515 N729 U192/net14 VDD VDD pmos W=0.205u L=0.04u
M516 U192/net10 n155 VDD VDD pmos W=0.205u L=0.04u
M517 U193/XU1-net6 n115 VSS VSS nmos W=0.155u L=0.04u
M518 n155 n153 U193/XU1-net6 VSS nmos W=0.155u L=0.04u
M519 n155 n115 VDD VDD pmos W=0.155u L=0.04u
M520 n155 n153 VDD VDD pmos W=0.155u L=0.04u
M521 U194/net4 n156 U194/net14 VSS nmos W=0.155u L=0.04u
M522 U194/net6 U194/net10 U194/net14 VSS nmos W=0.17u L=0.04u
M523 U194/net4 N17 VSS VSS nmos W=0.155u L=0.04u
M524 U194/net6 U194/net4 VSS VSS nmos W=0.17u L=0.04u
M525 N728 U194/net14 VSS VSS nmos W=0.155u L=0.04u
M526 U194/net10 n156 VSS VSS nmos W=0.155u L=0.04u
M527 U194/net4 U194/net10 U194/net14 VDD pmos W=0.255u L=0.04u
M528 U194/net6 n156 U194/net14 VDD pmos W=0.28u L=0.04u
M529 U194/net4 N17 VDD VDD pmos W=0.205u L=0.04u
M530 U194/net6 U194/net4 VDD VDD pmos W=0.24u L=0.04u
M531 N728 U194/net14 VDD VDD pmos W=0.205u L=0.04u
M532 U194/net10 n156 VDD VDD pmos W=0.205u L=0.04u
M533 U195/XU1-net6 n118 VSS VSS nmos W=0.155u L=0.04u
M534 n156 n153 U195/XU1-net6 VSS nmos W=0.155u L=0.04u
M535 n156 n118 VDD VDD pmos W=0.155u L=0.04u
M536 n156 n153 VDD VDD pmos W=0.155u L=0.04u
M537 n153 U196/net6 VSS VSS nmos W=0.155u L=0.04u
M538 U196/net6 n105 U196/XU30-net23 VSS nmos W=0.155u L=0.04u
M539 U196/XU30-net23 n143 U196/XU30-net26 VSS nmos W=0.155u L=0.04u
M540 U196/XU30-net26 n99 U196/XU30-net29 VSS nmos W=0.155u L=0.04u
M541 U196/XU30-net29 n157 VSS VSS nmos W=0.155u L=0.04u
M542 n153 U196/net6 VDD VDD pmos W=0.205u L=0.04u
M543 U196/net6 n157 VDD VDD pmos W=0.205u L=0.04u
M544 U196/net6 n99 VDD VDD pmos W=0.205u L=0.04u
M545 U196/net6 n143 VDD VDD pmos W=0.205u L=0.04u
M546 U196/net6 n105 VDD VDD pmos W=0.205u L=0.04u
M547 n157 n101 VSS VSS nmos W=0.155u L=0.04u
M548 n157 n103 VSS VSS nmos W=0.155u L=0.04u
M549 U197/XI1-net8 n103 VDD VDD pmos W=0.205u L=0.04u
M550 n157 n101 U197/XI1-net8 VDD pmos W=0.205u L=0.04u
M551 n103 n144 VSS VSS nmos W=0.135u L=0.04u
M552 n103 n144 VDD VDD pmos W=0.205u L=0.04u
M553 n101 n141 VSS VSS nmos W=0.135u L=0.04u
M554 n101 n141 VDD VDD pmos W=0.205u L=0.04u
M555 n99 n145 VSS VSS nmos W=0.135u L=0.04u
M556 n99 n145 VDD VDD pmos W=0.205u L=0.04u
M557 n105 n142 VSS VSS nmos W=0.135u L=0.04u
M558 n105 n142 VDD VDD pmos W=0.205u L=0.04u
M559 U202/net4 n158 U202/net14 VSS nmos W=0.155u L=0.04u
M560 U202/net6 U202/net10 U202/net14 VSS nmos W=0.17u L=0.04u