.SUBCKT c5315 N1 N4 N11 N14 N17 N20 N23 N24 N25 N26 N27 N31 N34 N37 N40 N43 N46 N49 N52 N53 N54 N61 N64 N67 N70 N73 N76 N79 N80 N81 N82 N83 N86 N87 N88 N91 N94 N97 N100 N103 N106 N109 N112 N113 N114 N115 N116 N117 N118 N119 N120 N121 N122 N123 N126 N127 N128 N129 N130 N131 N132 N135 N136 N137 N140 N141 N145 N146 N149 N152 N155 N158 N161 N164 N167 N170 N173 N176 N179 N182 N185 N188 N191 N194 N197 N200 N203 N206 N209 N210 N217 N218 N225 N226 N233 N234 N241 N242 N245 N248 N251 N254 N257 N264 N265 N272 N273 N280 N281 N288 N289 N292 N293 N299 N302 N307 N308 N315 N316 N323 N324 N331 N332 N335 N338 N341 N348 N351 N358 N361 N366 N369 N372 N373 N374 N386 N389 N400 N411 N422 N435 N446 N457 N468 N479 N490 N503 N514 N523 N534 N545 N549 N552 N556 N559 N562 N566 N571 N574 N577 N580 N583 N588 N591 N592 N595 N596 N597 N598 N599 N603 N607 N610 N613 N616 N619 N625 N631 N1137 N1138 N1139 N1140 N1141 N1144 N1145 N1147 N1152 N1153 N1154 N1155 N0 N2054 N2060 N2061 N2590 N2623 N3613 N4272 N4278 N4279 N4737 N4738 N4739 N4740 N5240 N5388 N6648 N6646 N6716 N6877 N6926 N6927 N7015 N7363 N7365 N7432 N7449 N7465 N7466 N7467 N7469 N7470 N7471 N7472 N7473 N7474 N7476 N7503 N7504 N7506 N7511 N7515 N7516 N7517 N7518 N7519 N7520 N7521 N7522 N7600 N7601 N7602 N7603 N7604 N7605 N7606 N7607 N7626 N7698 N7699 N7700 N7701 N7702 N7703 N7704 N7705 N7706 N7707 N7735 N7736 N7737 N7738 N7739 N7740 N7741 N7742 N7754 N7755 N7756 N7757 N7758 N7759 N7760 N7761 N8075 N8076 N8123 N8124 N8127 N8128 VDD VSS 
M1 U628/XU1-net6 N137 VSS VSS nmos W=0.155u L=0.04u
M2 N8128 n568 U628/XU1-net6 VSS nmos W=0.155u L=0.04u
M3 N8128 N137 VDD VDD pmos W=0.155u L=0.04u
M4 N8128 n568 VDD VDD pmos W=0.155u L=0.04u
M5 U629/net24 N580 VSS VSS nmos W=0.155u L=0.04u
M6 U629/net74 n571 VSS VSS nmos W=0.155u L=0.04u
M7 U629/net72 n569 VSS VSS nmos W=0.155u L=0.04u
M8 U629/net76 n572 VSS VSS nmos W=0.31u L=0.04u
M9 U629/net044 N577 VSS VSS nmos W=0.155u L=0.04u
M10 U629/net052 n570 VSS VSS nmos W=0.31u L=0.04u
M11 U629/PG2 N580 n568 VSS nmos W=0.22u L=0.04u
M12 U629/net74 U629/net044 U629/PG2 VSS nmos W=0.12u L=0.04u
M13 U629/net052 N577 U629/PG1 VSS nmos W=0.155u L=0.04u
M14 U629/PG1 U629/net24 n568 VSS nmos W=0.155u L=0.04u
M15 U629/net76 N577 U629/PG2 VSS nmos W=0.155u L=0.04u
M16 U629/net72 U629/net044 U629/PG1 VSS nmos W=0.12u L=0.04u
M17 U629/net24 N580 VDD VDD pmos W=0.205u L=0.04u
M18 U629/net74 n571 VDD VDD pmos W=0.205u L=0.04u
M19 U629/net72 n569 VDD VDD pmos W=0.205u L=0.04u
M20 U629/net76 n572 VDD VDD pmos W=0.41u L=0.04u
M21 U629/net044 N577 VDD VDD pmos W=0.205u L=0.04u
M22 U629/net052 n570 VDD VDD pmos W=0.41u L=0.04u
M23 U629/PG2 U629/net24 n568 VDD pmos W=0.205u L=0.04u
M24 U629/net74 N577 U629/PG2 VDD pmos W=0.205u L=0.04u
M25 U629/net052 U629/net044 U629/PG1 VDD pmos W=0.205u L=0.04u
M26 U629/PG1 N580 n568 VDD pmos W=0.29u L=0.04u
M27 U629/net76 U629/net044 U629/PG2 VDD pmos W=0.205u L=0.04u
M28 U629/net72 N577 U629/PG1 VDD pmos W=0.205u L=0.04u
M29 U630/XU1-net6 N137 VSS VSS nmos W=0.155u L=0.04u
M30 N8127 n573 U630/XU1-net6 VSS nmos W=0.155u L=0.04u
M31 N8127 N137 VDD VDD pmos W=0.155u L=0.04u
M32 N8127 n573 VDD VDD pmos W=0.155u L=0.04u
M33 U631/net24 N574 VSS VSS nmos W=0.155u L=0.04u
M34 U631/net74 n571 VSS VSS nmos W=0.155u L=0.04u
M35 U631/net72 n569 VSS VSS nmos W=0.155u L=0.04u
M36 U631/net76 n572 VSS VSS nmos W=0.31u L=0.04u
M37 U631/net044 N571 VSS VSS nmos W=0.155u L=0.04u
M38 U631/net052 n570 VSS VSS nmos W=0.31u L=0.04u
M39 U631/PG2 N574 n573 VSS nmos W=0.22u L=0.04u
M40 U631/net74 U631/net044 U631/PG2 VSS nmos W=0.12u L=0.04u
M41 U631/net052 N571 U631/PG1 VSS nmos W=0.155u L=0.04u
M42 U631/PG1 U631/net24 n573 VSS nmos W=0.155u L=0.04u
M43 U631/net76 N571 U631/PG2 VSS nmos W=0.155u L=0.04u
M44 U631/net72 U631/net044 U631/PG1 VSS nmos W=0.12u L=0.04u
M45 U631/net24 N574 VDD VDD pmos W=0.205u L=0.04u
M46 U631/net74 n571 VDD VDD pmos W=0.205u L=0.04u
M47 U631/net72 n569 VDD VDD pmos W=0.205u L=0.04u
M48 U631/net76 n572 VDD VDD pmos W=0.41u L=0.04u
M49 U631/net044 N571 VDD VDD pmos W=0.205u L=0.04u
M50 U631/net052 n570 VDD VDD pmos W=0.41u L=0.04u
M51 U631/PG2 U631/net24 n573 VDD pmos W=0.205u L=0.04u
M52 U631/net74 N571 U631/PG2 VDD pmos W=0.205u L=0.04u
M53 U631/net052 U631/net044 U631/PG1 VDD pmos W=0.205u L=0.04u
M54 U631/PG1 N574 n573 VDD pmos W=0.29u L=0.04u
M55 U631/net76 U631/net044 U631/PG2 VDD pmos W=0.205u L=0.04u
M56 U631/net72 N571 U631/PG1 VDD pmos W=0.205u L=0.04u
M57 n572 N179 VSS VSS nmos W=0.135u L=0.04u
M58 n572 N179 VDD VDD pmos W=0.205u L=0.04u
M59 n571 N176 VSS VSS nmos W=0.135u L=0.04u
M60 n571 N176 VDD VDD pmos W=0.205u L=0.04u
M61 N8124 n574 U634/net26 VSS nmos W=0.155u L=0.04u
M62 N8124 n569 U634/net26 VSS nmos W=0.155u L=0.04u
M63 U634/net29 n576 VSS VSS nmos W=0.155u L=0.04u
M64 U634/net26 n570 U634/net29 VSS nmos W=0.155u L=0.04u
M65 U634/net26 n575 U634/net29 VSS nmos W=0.155u L=0.04u
M66 N8124 n569 U634/net43 VDD pmos W=0.205u L=0.04u
M67 N8124 n575 U634/net49 VDD pmos W=0.205u L=0.04u
M68 U634/net49 n570 VDD VDD pmos W=0.205u L=0.04u
M69 U634/net43 n574 VDD VDD pmos W=0.205u L=0.04u
M70 N8124 n576 VDD VDD pmos W=0.205u L=0.04u
M71 U635/net29 n578 VSS VSS nmos W=0.155u L=0.04u
M72 n576 N14 U635/net29 VSS nmos W=0.155u L=0.04u
M73 n576 N64 U635/net23 VSS nmos W=0.155u L=0.04u
M74 U635/net23 n577 VSS VSS nmos W=0.155u L=0.04u
M75 U635/net20 n577 n576 VDD pmos W=0.205u L=0.04u
M76 U635/net20 N64 n576 VDD pmos W=0.205u L=0.04u
M77 VDD N14 U635/net20 VDD pmos W=0.205u L=0.04u
M78 VDD n578 U635/net20 VDD pmos W=0.205u L=0.04u
M79 N8123 n579 U636/net26 VSS nmos W=0.155u L=0.04u
M80 N8123 n569 U636/net26 VSS nmos W=0.155u L=0.04u
M81 U636/net29 n581 VSS VSS nmos W=0.155u L=0.04u
M82 U636/net26 n570 U636/net29 VSS nmos W=0.155u L=0.04u
M83 U636/net26 n580 U636/net29 VSS nmos W=0.155u L=0.04u
M84 N8123 n569 U636/net43 VDD pmos W=0.205u L=0.04u
M85 N8123 n580 U636/net49 VDD pmos W=0.205u L=0.04u
M86 U636/net49 n570 VDD VDD pmos W=0.205u L=0.04u
M87 U636/net43 n579 VDD VDD pmos W=0.205u L=0.04u
M88 N8123 n581 VDD VDD pmos W=0.205u L=0.04u
M89 U637/net29 N64 VSS VSS nmos W=0.155u L=0.04u
M90 n581 n583 U637/net29 VSS nmos W=0.155u L=0.04u
M91 n581 n582 U637/net23 VSS nmos W=0.155u L=0.04u
M92 U637/net23 N14 VSS VSS nmos W=0.155u L=0.04u
M93 U637/net20 N14 n581 VDD pmos W=0.205u L=0.04u
M94 U637/net20 n582 n581 VDD pmos W=0.205u L=0.04u
M95 VDD n583 U637/net20 VDD pmos W=0.205u L=0.04u
M96 VDD N64 U637/net20 VDD pmos W=0.205u L=0.04u
M97 n570 n586 U638/XI21-net17 VSS nmos W=0.155u L=0.04u
M98 U638/XI21-net17 n587 VSS VSS nmos W=0.155u L=0.04u
M99 n570 n584 U638/XI6-net17 VSS nmos W=0.155u L=0.04u
M100 U638/XI6-net17 n585 VSS VSS nmos W=0.155u L=0.04u
M101 n570 N97 U638/XI20-net17 VSS nmos W=0.155u L=0.04u
M102 U638/XI20-net17 N625 VSS VSS nmos W=0.155u L=0.04u
M103 VDD n586 U638/net22 VDD pmos W=0.205u L=0.04u
M104 VDD n587 U638/net22 VDD pmos W=0.205u L=0.04u
M105 U638/net16 n584 n570 VDD pmos W=0.205u L=0.04u
M106 U638/net16 n585 n570 VDD pmos W=0.205u L=0.04u
M107 U638/net22 N97 U638/net16 VDD pmos W=0.205u L=0.04u
M108 U638/net22 N625 U638/net16 VDD pmos W=0.205u L=0.04u
M109 n569 n586 U639/XI21-net17 VSS nmos W=0.155u L=0.04u
M110 U639/XI21-net17 n589 VSS VSS nmos W=0.155u L=0.04u
M111 n569 n588 U639/XI6-net17 VSS nmos W=0.155u L=0.04u
M112 U639/XI6-net17 n584 VSS VSS nmos W=0.155u L=0.04u
M113 n569 N94 U639/XI20-net17 VSS nmos W=0.155u L=0.04u
M114 U639/XI20-net17 N625 VSS VSS nmos W=0.155u L=0.04u
M115 VDD n586 U639/net22 VDD pmos W=0.205u L=0.04u
M116 VDD n589 U639/net22 VDD pmos W=0.205u L=0.04u
M117 U639/net16 n588 n569 VDD pmos W=0.205u L=0.04u
M118 U639/net16 n584 n569 VDD pmos W=0.205u L=0.04u
M119 U639/net22 N94 U639/net16 VDD pmos W=0.205u L=0.04u
M120 U639/net22 N625 U639/net16 VDD pmos W=0.205u L=0.04u
M121 N8076 n590 U640/net26 VSS nmos W=0.155u L=0.04u
M122 N8076 n587 U640/net26 VSS nmos W=0.155u L=0.04u
M123 U640/net29 n592 VSS VSS nmos W=0.155u L=0.04u
M124 U640/net26 n591 U640/net29 VSS nmos W=0.155u L=0.04u
M125 U640/net26 n585 U640/net29 VSS nmos W=0.155u L=0.04u
M126 N8076 n587 U640/net43 VDD pmos W=0.205u L=0.04u
M127 N8076 n585 U640/net49 VDD pmos W=0.205u L=0.04u
M128 U640/net49 n591 VDD VDD pmos W=0.205u L=0.04u
M129 U640/net43 n590 VDD VDD pmos W=0.205u L=0.04u
M130 N8076 n592 VDD VDD pmos W=0.205u L=0.04u
M131 n592 N118 U641/net15 VSS nmos W=0.155u L=0.04u
M132 n592 N619 U641/net15 VSS nmos W=0.155u L=0.04u
M133 U641/net15 N625 VSS VSS nmos W=0.155u L=0.04u
M134 n592 N625 VDD VDD pmos W=0.205u L=0.04u
M135 n592 N118 U641/XI16-net11 VDD pmos W=0.205u L=0.04u
M136 U641/XI16-net11 N619 VDD VDD pmos W=0.205u L=0.04u
M137 U642/net29 U642/net21 U642/net041 VSS nmos W=0.155u L=0.04u
M138 U642/net035 U642/net19 VSS VSS nmos W=0.155u L=0.04u
M139 U642/net041 U642/net13 VSS VSS nmos W=0.155u L=0.04u
M140 U642/net25 n594 U642/net035 VSS nmos W=0.155u L=0.04u
M141 U642/net19 U642/net17 U642/net25 VSS nmos W=0.155u L=0.04u
M142 U642/net13 U642/net25 U642/net29 VSS nmos W=0.155u L=0.04u
M143 n585 U642/net29 VSS VSS nmos W=0.155u L=0.04u
M144 U642/net13 n595 VSS VSS nmos W=0.155u L=0.04u
M145 U642/net17 n594 VSS VSS nmos W=0.155u L=0.04u
M146 U642/net19 n593 VSS VSS nmos W=0.155u L=0.04u
M147 U642/net21 U642/net25 VSS VSS nmos W=0.155u L=0.04u
M148 U642/net028 U642/net19 VDD VDD pmos W=0.205u L=0.04u
M149 U642/net25 U642/net17 U642/net028 VDD pmos W=0.205u L=0.04u
M150 U642/net29 U642/net25 U642/net029 VDD pmos W=0.205u L=0.04u
M151 U642/net029 U642/net13 VDD VDD pmos W=0.205u L=0.04u
M152 U642/net19 n594 U642/net25 VDD pmos W=0.205u L=0.04u
M153 U642/net13 U642/net21 U642/net29 VDD pmos W=0.205u L=0.04u
M154 n585 U642/net29 VDD VDD pmos W=0.205u L=0.04u
M155 U642/net13 n595 VDD VDD pmos W=0.205u L=0.04u
M156 U642/net17 n594 VDD VDD pmos W=0.205u L=0.04u
M157 U642/net19 n593 VDD VDD pmos W=0.205u L=0.04u
M158 U642/net21 U642/net25 VDD VDD pmos W=0.205u L=0.04u
M159 U643/net24 N468 VSS VSS nmos W=0.155u L=0.04u
M160 U643/net74 N251 VSS VSS nmos W=0.155u L=0.04u
M161 U643/net72 n596 VSS VSS nmos W=0.155u L=0.04u
M162 U643/net76 N248 VSS VSS nmos W=0.31u L=0.04u
M163 U643/net044 N218 VSS VSS nmos W=0.155u L=0.04u
M164 U643/net052 n597 VSS VSS nmos W=0.31u L=0.04u
M165 U643/PG2 N468 n595 VSS nmos W=0.22u L=0.04u
M166 U643/net74 U643/net044 U643/PG2 VSS nmos W=0.12u L=0.04u
M167 U643/net052 N218 U643/PG1 VSS nmos W=0.155u L=0.04u
M168 U643/PG1 U643/net24 n595 VSS nmos W=0.155u L=0.04u
M169 U643/net76 N218 U643/PG2 VSS nmos W=0.155u L=0.04u
M170 U643/net72 U643/net044 U643/PG1 VSS nmos W=0.12u L=0.04u
M171 U643/net24 N468 VDD VDD pmos W=0.205u L=0.04u
M172 U643/net74 N251 VDD VDD pmos W=0.205u L=0.04u
M173 U643/net72 n596 VDD VDD pmos W=0.205u L=0.04u
M174 U643/net76 N248 VDD VDD pmos W=0.41u L=0.04u
M175 U643/net044 N218 VDD VDD pmos W=0.205u L=0.04u
M176 U643/net052 n597 VDD VDD pmos W=0.41u L=0.04u
M177 U643/PG2 U643/net24 n595 VDD pmos W=0.205u L=0.04u
M178 U643/net74 N218 U643/PG2 VDD pmos W=0.205u L=0.04u
M179 U643/net052 U643/net044 U643/PG1 VDD pmos W=0.205u L=0.04u
M180 U643/PG1 N468 n595 VDD pmos W=0.29u L=0.04u
M181 U643/net76 U643/net044 U643/PG2 VDD pmos W=0.205u L=0.04u
M182 U643/net72 N218 U643/PG1 VDD pmos W=0.205u L=0.04u
M183 U644/net28 U644/net20 U644/net64 VSS nmos W=0.155u L=0.04u
M184 U644/net24 U644/net30 U644/net32 VSS nmos W=0.155u L=0.04u
M185 U644/net28 U644/net40 U644/net24 VSS nmos W=0.155u L=0.04u
M186 U644/net40 n601 U644/net108 VSS nmos W=0.155u L=0.04u
M187 U644/net40 U644/net106 U644/net104 VSS nmos W=0.155u L=0.04u
M188 U644/net24 n598 U644/net050 VSS nmos W=0.155u L=0.04u
M189 U644/net050 U644/net32 VSS VSS nmos W=0.155u L=0.04u
M190 U644/net20 U644/net40 VSS VSS nmos W=0.155u L=0.04u
M191 U644/net106 n601 VSS VSS nmos W=0.155u L=0.04u
M192 U644/net104 n600 VSS VSS nmos W=0.155u L=0.04u
M193 U644/net30 n598 VSS VSS nmos W=0.155u L=0.04u
M194 U644/net108 U644/net104 VSS VSS nmos W=0.155u L=0.04u
M195 n594 U644/net28 VSS VSS nmos W=0.155u L=0.04u
M196 U644/net32 n599 VSS VSS nmos W=0.155u L=0.04u
M197 U644/net64 U644/net24 VSS VSS nmos W=0.2u L=0.04u
M198 U644/net28 U644/net40 U644/net64 VDD pmos W=0.205u L=0.04u
M199 U644/net24 n598 U644/net32 VDD pmos W=0.205u L=0.04u
M200 U644/net28 U644/net20 U644/net24 VDD pmos W=0.205u L=0.04u
M201 U644/net40 U644/net106 U644/net108 VDD pmos W=0.205u L=0.04u
M202 U644/net40 n601 U644/net104 VDD pmos W=0.205u L=0.04u
M203 U644/net20 U644/net40 VDD VDD pmos W=0.205u L=0.04u
M204 U644/net106 n601 VDD VDD pmos W=0.205u L=0.04u
M205 U644/net104 n600 VDD VDD pmos W=0.205u L=0.04u
M206 U644/net30 n598 VDD VDD pmos W=0.205u L=0.04u
M207 U644/net108 U644/net104 VDD VDD pmos W=0.205u L=0.04u
M208 n594 U644/net28 VDD VDD pmos W=0.205u L=0.04u
M209 U644/net32 n599 VDD VDD pmos W=0.205u L=0.04u
M210 U644/net64 U644/net24 VDD VDD pmos W=0.28u L=0.04u
M211 U644/net24 U644/net30 U644/net045 VDD pmos W=0.205u L=0.04u
M212 U644/net045 U644/net32 VDD VDD pmos W=0.205u L=0.04u
M213 U645/net24 N257 VSS VSS nmos W=0.155u L=0.04u
M214 U645/net74 N242 VSS VSS nmos W=0.155u L=0.04u
M215 U645/net72 N254 VSS VSS nmos W=0.155u L=0.04u
M216 U645/net76 n603 VSS VSS nmos W=0.31u L=0.04u
M217 U645/net044 N389 VSS VSS nmos W=0.155u L=0.04u
M218 U645/net052 n602 VSS VSS nmos W=0.31u L=0.04u
M219 U645/PG2 N257 n600 VSS nmos W=0.22u L=0.04u
M220 U645/net74 U645/net044 U645/PG2 VSS nmos W=0.12u L=0.04u
M221 U645/net052 N389 U645/PG1 VSS nmos W=0.155u L=0.04u
M222 U645/PG1 U645/net24 n600 VSS nmos W=0.155u L=0.04u
M223 U645/net76 N389 U645/PG2 VSS nmos W=0.155u L=0.04u
M224 U645/net72 U645/net044 U645/PG1 VSS nmos W=0.12u L=0.04u
M225 U645/net24 N257 VDD VDD pmos W=0.205u L=0.04u
M226 U645/net74 N242 VDD VDD pmos W=0.205u L=0.04u
M227 U645/net72 N254 VDD VDD pmos W=0.205u L=0.04u
M228 U645/net76 n603 VDD VDD pmos W=0.41u L=0.04u
M229 U645/net044 N389 VDD VDD pmos W=0.205u L=0.04u
M230 U645/net052 n602 VDD VDD pmos W=0.41u L=0.04u
M231 U645/PG2 U645/net24 n600 VDD pmos W=0.205u L=0.04u
M232 U645/net74 N389 U645/PG2 VDD pmos W=0.205u L=0.04u
M233 U645/net052 U645/net044 U645/PG1 VDD pmos W=0.205u L=0.04u
M234 U645/PG1 N257 n600 VDD pmos W=0.29u L=0.04u
M235 U645/net76 U645/net044 U645/PG2 VDD pmos W=0.205u L=0.04u
M236 U645/net72 N389 U645/PG1 VDD pmos W=0.205u L=0.04u
M237 U646/net24 N273 VSS VSS nmos W=0.155u L=0.04u
M238 U646/net74 N242 VSS VSS nmos W=0.155u L=0.04u
M239 U646/net72 N254 VSS VSS nmos W=0.155u L=0.04u
M240 U646/net76 n603 VSS VSS nmos W=0.31u L=0.04u
M241 U646/net044 N411 VSS VSS nmos W=0.155u L=0.04u
M242 U646/net052 n602 VSS VSS nmos W=0.31u L=0.04u
M243 U646/PG2 N273 n599 VSS nmos W=0.22u L=0.04u
M244 U646/net74 U646/net044 U646/PG2 VSS nmos W=0.12u L=0.04u
M245 U646/net052 N411 U646/PG1 VSS nmos W=0.155u L=0.04u
M246 U646/PG1 U646/net24 n599 VSS nmos W=0.155u L=0.04u
M247 U646/net76 N411 U646/PG2 VSS nmos W=0.155u L=0.04u
M248 U646/net72 U646/net044 U646/PG1 VSS nmos W=0.12u L=0.04u
M249 U646/net24 N273 VDD VDD pmos W=0.205u L=0.04u
M250 U646/net74 N242 VDD VDD pmos W=0.205u L=0.04u
M251 U646/net72 N254 VDD VDD pmos W=0.205u L=0.04u
M252 U646/net76 n603 VDD VDD pmos W=0.41u L=0.04u
M253 U646/net044 N411 VDD VDD pmos W=0.205u L=0.04u
M254 U646/net052 n602 VDD VDD pmos W=0.41u L=0.04u
M255 U646/PG2 U646/net24 n599 VDD pmos W=0.205u L=0.04u
M256 U646/net74 N411 U646/PG2 VDD pmos W=0.205u L=0.04u
M257 U646/net052 U646/net044 U646/PG1 VDD pmos W=0.205u L=0.04u
M258 U646/PG1 N273 n599 VDD pmos W=0.29u L=0.04u
M259 U646/net76 U646/net044 U646/PG2 VDD pmos W=0.205u L=0.04u
M260 U646/net72 N411 U646/PG1 VDD pmos W=0.205u L=0.04u
M261 U647/net24 N226 VSS VSS nmos W=0.155u L=0.04u
M262 U647/net74 N242 VSS VSS nmos W=0.155u L=0.04u
M263 U647/net72 N254 VSS VSS nmos W=0.155u L=0.04u
M264 U647/net76 n603 VSS VSS nmos W=0.31u L=0.04u
M265 U647/net044 N422 VSS VSS nmos W=0.155u L=0.04u
M266 U647/net052 n602 VSS VSS nmos W=0.31u L=0.04u
M267 U647/PG2 N226 n598 VSS nmos W=0.22u L=0.04u
M268 U647/net74 U647/net044 U647/PG2 VSS nmos W=0.12u L=0.04u
M269 U647/net052 N422 U647/PG1 VSS nmos W=0.155u L=0.04u
M270 U647/PG1 U647/net24 n598 VSS nmos W=0.155u L=0.04u
M271 U647/net76 N422 U647/PG2 VSS nmos W=0.155u L=0.04u
M272 U647/net72 U647/net044 U647/PG1 VSS nmos W=0.12u L=0.04u
M273 U647/net24 N226 VDD VDD pmos W=0.205u L=0.04u
M274 U647/net74 N242 VDD VDD pmos W=0.205u L=0.04u
M275 U647/net72 N254 VDD VDD pmos W=0.205u L=0.04u
M276 U647/net76 n603 VDD VDD pmos W=0.41u L=0.04u
M277 U647/net044 N422 VDD VDD pmos W=0.205u L=0.04u
M278 U647/net052 n602 VDD VDD pmos W=0.41u L=0.04u
M279 U647/PG2 U647/net24 n598 VDD pmos W=0.205u L=0.04u
M280 U647/net74 N422 U647/PG2 VDD pmos W=0.205u L=0.04u
M281 U647/net052 U647/net044 U647/PG1 VDD pmos W=0.205u L=0.04u
M282 U647/PG1 N226 n598 VDD pmos W=0.29u L=0.04u
M283 U647/net76 U647/net044 U647/PG2 VDD pmos W=0.205u L=0.04u
M284 U647/net72 N422 U647/PG1 VDD pmos W=0.205u L=0.04u
M285 U648/net28 U648/net20 U648/net64 VSS nmos W=0.155u L=0.04u
M286 U648/net24 U648/net30 U648/net32 VSS nmos W=0.155u L=0.04u
M287 U648/net28 U648/net40 U648/net24 VSS nmos W=0.155u L=0.04u
M288 U648/net40 n607 U648/net108 VSS nmos W=0.155u L=0.04u
M289 U648/net40 U648/net106 U648/net104 VSS nmos W=0.155u L=0.04u
M290 U648/net24 n604 U648/net050 VSS nmos W=0.155u L=0.04u
M291 U648/net050 U648/net32 VSS VSS nmos W=0.155u L=0.04u
M292 U648/net20 U648/net40 VSS VSS nmos W=0.155u L=0.04u
M293 U648/net106 n607 VSS VSS nmos W=0.155u L=0.04u
M294 U648/net104 n606 VSS VSS nmos W=0.155u L=0.04u
M295 U648/net30 n604 VSS VSS nmos W=0.155u L=0.04u
M296 U648/net108 U648/net104 VSS VSS nmos W=0.155u L=0.04u
M297 n593 U648/net28 VSS VSS nmos W=0.155u L=0.04u
M298 U648/net32 n605 VSS VSS nmos W=0.155u L=0.04u
M299 U648/net64 U648/net24 VSS VSS nmos W=0.2u L=0.04u
M300 U648/net28 U648/net40 U648/net64 VDD pmos W=0.205u L=0.04u
M301 U648/net24 n604 U648/net32 VDD pmos W=0.205u L=0.04u
M302 U648/net28 U648/net20 U648/net24 VDD pmos W=0.205u L=0.04u
M303 U648/net40 U648/net106 U648/net108 VDD pmos W=0.205u L=0.04u
M304 U648/net40 n607 U648/net104 VDD pmos W=0.205u L=0.04u
M305 U648/net20 U648/net40 VDD VDD pmos W=0.205u L=0.04u
M306 U648/net106 n607 VDD VDD pmos W=0.205u L=0.04u
M307 U648/net104 n606 VDD VDD pmos W=0.205u L=0.04u
M308 U648/net30 n604 VDD VDD pmos W=0.205u L=0.04u
M309 U648/net108 U648/net104 VDD VDD pmos W=0.205u L=0.04u
M310 n593 U648/net28 VDD VDD pmos W=0.205u L=0.04u
M311 U648/net32 n605 VDD VDD pmos W=0.205u L=0.04u
M312 U648/net64 U648/net24 VDD VDD pmos W=0.28u L=0.04u
M313 U648/net24 U648/net30 U648/net045 VDD pmos W=0.205u L=0.04u
M314 U648/net045 U648/net32 VDD VDD pmos W=0.205u L=0.04u
M315 U649/net24 N281 VSS VSS nmos W=0.155u L=0.04u
M316 U649/net74 N242 VSS VSS nmos W=0.155u L=0.04u
M317 U649/net72 N254 VSS VSS nmos W=0.155u L=0.04u
M318 U649/net76 n603 VSS VSS nmos W=0.31u L=0.04u
M319 U649/net044 N374 VSS VSS nmos W=0.155u L=0.04u
M320 U649/net052 n602 VSS VSS nmos W=0.31u L=0.04u
M321 U649/PG2 N281 n607 VSS nmos W=0.22u L=0.04u
M322 U649/net74 U649/net044 U649/PG2 VSS nmos W=0.12u L=0.04u
M323 U649/net052 N374 U649/PG1 VSS nmos W=0.155u L=0.04u
M324 U649/PG1 U649/net24 n607 VSS nmos W=0.155u L=0.04u
M325 U649/net76 N374 U649/PG2 VSS nmos W=0.155u L=0.04u
M326 U649/net72 U649/net044 U649/PG1 VSS nmos W=0.12u L=0.04u
M327 U649/net24 N281 VDD VDD pmos W=0.205u L=0.04u
M328 U649/net74 N242 VDD VDD pmos W=0.205u L=0.04u
M329 U649/net72 N254 VDD VDD pmos W=0.205u L=0.04u
M330 U649/net76 n603 VDD VDD pmos W=0.41u L=0.04u
M331 U649/net044 N374 VDD VDD pmos W=0.205u L=0.04u
M332 U649/net052 n602 VDD VDD pmos W=0.41u L=0.04u
M333 U649/PG2 U649/net24 n607 VDD pmos W=0.205u L=0.04u
M334 U649/net74 N374 U649/PG2 VDD pmos W=0.205u L=0.04u
M335 U649/net052 U649/net044 U649/PG1 VDD pmos W=0.205u L=0.04u
M336 U649/PG1 N281 n607 VDD pmos W=0.29u L=0.04u
M337 U649/net76 U649/net044 U649/PG2 VDD pmos W=0.205u L=0.04u
M338 U649/net72 N374 U649/PG1 VDD pmos W=0.205u L=0.04u
M339 U650/net24 N265 VSS VSS nmos W=0.155u L=0.04u
M340 U650/net74 N242 VSS VSS nmos W=0.155u L=0.04u
M341 U650/net72 N254 VSS VSS nmos W=0.155u L=0.04u
M342 U650/net76 n603 VSS VSS nmos W=0.31u L=0.04u
M343 U650/net044 N400 VSS VSS nmos W=0.155u L=0.04u
M344 U650/net052 n602 VSS VSS nmos W=0.31u L=0.04u
M345 U650/PG2 N265 n606 VSS nmos W=0.22u L=0.04u
M346 U650/net74 U650/net044 U650/PG2 VSS nmos W=0.12u L=0.04u
M347 U650/net052 N400 U650/PG1 VSS nmos W=0.155u L=0.04u
M348 U650/PG1 U650/net24 n606 VSS nmos W=0.155u L=0.04u
M349 U650/net76 N400 U650/PG2 VSS nmos W=0.155u L=0.04u
M350 U650/net72 U650/net044 U650/PG1 VSS nmos W=0.12u L=0.04u
M351 U650/net24 N265 VDD VDD pmos W=0.205u L=0.04u
M352 U650/net74 N242 VDD VDD pmos W=0.205u L=0.04u
M353 U650/net72 N254 VDD VDD pmos W=0.205u L=0.04u
M354 U650/net76 n603 VDD VDD pmos W=0.41u L=0.04u
M355 U650/net044 N400 VDD VDD pmos W=0.205u L=0.04u
M356 U650/net052 n602 VDD VDD pmos W=0.41u L=0.04u
M357 U650/PG2 U650/net24 n606 VDD pmos W=0.205u L=0.04u
M358 U650/net74 N400 U650/PG2 VDD pmos W=0.205u L=0.04u
M359 U650/net052 U650/net044 U650/PG1 VDD pmos W=0.205u L=0.04u
M360 U650/PG1 N265 n606 VDD pmos W=0.29u L=0.04u
M361 U650/net76 U650/net044 U650/PG2 VDD pmos W=0.205u L=0.04u
M362 U650/net72 N400 U650/PG1 VDD pmos W=0.205u L=0.04u
M363 U651/net24 N234 VSS VSS nmos W=0.155u L=0.04u
M364 U651/net74 N242 VSS VSS nmos W=0.155u L=0.04u
M365 U651/net72 N254 VSS VSS nmos W=0.155u L=0.04u
M366 U651/net76 n603 VSS VSS nmos W=0.31u L=0.04u
M367 U651/net044 N435 VSS VSS nmos W=0.155u L=0.04u
M368 U651/net052 n602 VSS VSS nmos W=0.31u L=0.04u
M369 U651/PG2 N234 n605 VSS nmos W=0.22u L=0.04u
M370 U651/net74 U651/net044 U651/PG2 VSS nmos W=0.12u L=0.04u
M371 U651/net052 N435 U651/PG1 VSS nmos W=0.155u L=0.04u
M372 U651/PG1 U651/net24 n605 VSS nmos W=0.155u L=0.04u
M373 U651/net76 N435 U651/PG2 VSS nmos W=0.155u L=0.04u
M374 U651/net72 U651/net044 U651/PG1 VSS nmos W=0.12u L=0.04u
M375 U651/net24 N234 VDD VDD pmos W=0.205u L=0.04u
M376 U651/net74 N242 VDD VDD pmos W=0.205u L=0.04u
M377 U651/net72 N254 VDD VDD pmos W=0.205u L=0.04u
M378 U651/net76 n603 VDD VDD pmos W=0.41u L=0.04u
M379 U651/net044 N435 VDD VDD pmos W=0.205u L=0.04u
M380 U651/net052 n602 VDD VDD pmos W=0.41u L=0.04u
M381 U651/PG2 U651/net24 n605 VDD pmos W=0.205u L=0.04u
M382 U651/net74 N435 U651/PG2 VDD pmos W=0.205u L=0.04u
M383 U651/net052 U651/net044 U651/PG1 VDD pmos W=0.205u L=0.04u
M384 U651/PG1 N234 n605 VDD pmos W=0.29u L=0.04u
M385 U651/net76 U651/net044 U651/PG2 VDD pmos W=0.205u L=0.04u
M386 U651/net72 N435 U651/PG1 VDD pmos W=0.205u L=0.04u
M387 U652/net24 N210 VSS VSS nmos W=0.155u L=0.04u
M388 U652/net74 N242 VSS VSS nmos W=0.155u L=0.04u
M389 U652/net72 N254 VSS VSS nmos W=0.155u L=0.04u
M390 U652/net76 n603 VSS VSS nmos W=0.31u L=0.04u
M391 U652/net044 N457 VSS VSS nmos W=0.155u L=0.04u
M392 U652/net052 n602 VSS VSS nmos W=0.31u L=0.04u
M393 U652/PG2 N210 n604 VSS nmos W=0.22u L=0.04u
M394 U652/net74 U652/net044 U652/PG2 VSS nmos W=0.12u L=0.04u
M395 U652/net052 N457 U652/PG1 VSS nmos W=0.155u L=0.04u
M396 U652/PG1 U652/net24 n604 VSS nmos W=0.155u L=0.04u
M397 U652/net76 N457 U652/PG2 VSS nmos W=0.155u L=0.04u
M398 U652/net72 U652/net044 U652/PG1 VSS nmos W=0.12u L=0.04u
M399 U652/net24 N210 VDD VDD pmos W=0.205u L=0.04u
M400 U652/net74 N242 VDD VDD pmos W=0.205u L=0.04u
M401 U652/net72 N254 VDD VDD pmos W=0.205u L=0.04u
M402 U652/net76 n603 VDD VDD pmos W=0.41u L=0.04u
M403 U652/net044 N457 VDD VDD pmos W=0.205u L=0.04u
M404 U652/net052 n602 VDD VDD pmos W=0.41u L=0.04u
M405 U652/PG2 U652/net24 n604 VDD pmos W=0.205u L=0.04u
M406 U652/net74 N457 U652/PG2 VDD pmos W=0.205u L=0.04u
M407 U652/net052 U652/net044 U652/PG1 VDD pmos W=0.205u L=0.04u
M408 U652/PG1 N210 n604 VDD pmos W=0.29u L=0.04u
M409 U652/net76 U652/net044 U652/PG2 VDD pmos W=0.205u L=0.04u
M410 U652/net72 N457 U652/PG1 VDD pmos W=0.205u L=0.04u
M411 U653/net4 U653/net10 U653/net14 VSS nmos W=0.155u L=0.04u
M412 U653/net6 n608 U653/net14 VSS nmos W=0.155u L=0.04u
M413 U653/net4 n609 VSS VSS nmos W=0.155u L=0.04u
M414 U653/net6 U653/net4 VSS VSS nmos W=0.155u L=0.04u
M415 n587 U653/net14 VSS VSS nmos W=0.155u L=0.04u
M416 U653/net10 n608 VSS VSS nmos W=0.155u L=0.04u
M417 U653/net4 n608 U653/net14 VDD pmos W=0.205u L=0.04u
M418 U653/net6 U653/net10 U653/net14 VDD pmos W=0.205u L=0.04u
M419 U653/net4 n609 VDD VDD pmos W=0.205u L=0.04u
M420 U653/net6 U653/net4 VDD VDD pmos W=0.205u L=0.04u
M421 n587 U653/net14 VDD VDD pmos W=0.205u L=0.04u
M422 U653/net10 n608 VDD VDD pmos W=0.205u L=0.04u
M423 U654/net19 N566 VSS VSS nmos W=0.155u L=0.04u
M424 n609 N566 U654/net40 VSS nmos W=0.155u L=0.04u
M425 n609 U654/net19 U654/net36 VSS nmos W=0.155u L=0.04u
M426 U654/net40 n611 VSS VSS nmos W=0.31u L=0.04u
M427 U654/net36 n610 VSS VSS nmos W=0.155u L=0.04u
M428 U654/net19 N566 VDD VDD pmos W=0.205u L=0.04u
M429 n609 U654/net19 U654/net26 VDD pmos W=0.325u L=0.04u
M430 U654/net26 n611 VDD VDD pmos W=0.41u L=0.04u
M431 n609 N566 U654/net30 VDD pmos W=0.325u L=0.04u
M432 U654/net30 n610 VDD VDD pmos W=0.205u L=0.04u
M433 U655/net28 U655/net20 U655/net64 VSS nmos W=0.155u L=0.04u
M434 U655/net24 U655/net30 U655/net32 VSS nmos W=0.155u L=0.04u
M435 U655/net28 U655/net40 U655/net24 VSS nmos W=0.155u L=0.04u
M436 U655/net40 n615 U655/net108 VSS nmos W=0.155u L=0.04u
M437 U655/net40 U655/net106 U655/net104 VSS nmos W=0.155u L=0.04u
M438 U655/net24 n612 U655/net050 VSS nmos W=0.155u L=0.04u
M439 U655/net050 U655/net32 VSS VSS nmos W=0.155u L=0.04u
M440 U655/net20 U655/net40 VSS VSS nmos W=0.155u L=0.04u
M441 U655/net106 n615 VSS VSS nmos W=0.155u L=0.04u
M442 U655/net104 n614 VSS VSS nmos W=0.155u L=0.04u
M443 U655/net30 n612 VSS VSS nmos W=0.155u L=0.04u
M444 U655/net108 U655/net104 VSS VSS nmos W=0.155u L=0.04u
M445 n611 U655/net28 VSS VSS nmos W=0.155u L=0.04u
M446 U655/net32 n613 VSS VSS nmos W=0.155u L=0.04u
M447 U655/net64 U655/net24 VSS VSS nmos W=0.2u L=0.04u
M448 U655/net28 U655/net40 U655/net64 VDD pmos W=0.205u L=0.04u
M449 U655/net24 n612 U655/net32 VDD pmos W=0.205u L=0.04u
M450 U655/net28 U655/net20 U655/net24 VDD pmos W=0.205u L=0.04u
M451 U655/net40 U655/net106 U655/net108 VDD pmos W=0.205u L=0.04u
M452 U655/net40 n615 U655/net104 VDD pmos W=0.205u L=0.04u
M453 U655/net20 U655/net40 VDD VDD pmos W=0.205u L=0.04u
M454 U655/net106 n615 VDD VDD pmos W=0.205u L=0.04u
M455 U655/net104 n614 VDD VDD pmos W=0.205u L=0.04u
M456 U655/net30 n612 VDD VDD pmos W=0.205u L=0.04u
M457 U655/net108 U655/net104 VDD VDD pmos W=0.205u L=0.04u
M458 n611 U655/net28 VDD VDD pmos W=0.205u L=0.04u
M459 U655/net32 n613 VDD VDD pmos W=0.205u L=0.04u
M460 U655/net64 U655/net24 VDD VDD pmos W=0.28u L=0.04u
M461 U655/net24 U655/net30 U655/net045 VDD pmos W=0.205u L=0.04u
M462 U655/net045 U655/net32 VDD VDD pmos W=0.205u L=0.04u
M463 U656/net28 U656/net20 U656/net64 VSS nmos W=0.155u L=0.04u
M464 U656/net24 U656/net30 U656/net32 VSS nmos W=0.155u L=0.04u
M465 U656/net28 U656/net40 U656/net24 VSS nmos W=0.155u L=0.04u
M466 U656/net40 n619 U656/net108 VSS nmos W=0.155u L=0.04u
M467 U656/net40 U656/net106 U656/net104 VSS nmos W=0.155u L=0.04u
M468 U656/net24 n616 U656/net050 VSS nmos W=0.155u L=0.04u
M469 U656/net050 U656/net32 VSS VSS nmos W=0.155u L=0.04u
M470 U656/net20 U656/net40 VSS VSS nmos W=0.155u L=0.04u
M471 U656/net106 n619 VSS VSS nmos W=0.155u L=0.04u
M472 U656/net104 n618 VSS VSS nmos W=0.155u L=0.04u
M473 U656/net30 n616 VSS VSS nmos W=0.155u L=0.04u
M474 U656/net108 U656/net104 VSS VSS nmos W=0.155u L=0.04u
M475 n615 U656/net28 VSS VSS nmos W=0.155u L=0.04u
M476 U656/net32 n617 VSS VSS nmos W=0.155u L=0.04u
M477 U656/net64 U656/net24 VSS VSS nmos W=0.2u L=0.04u
M478 U656/net28 U656/net40 U656/net64 VDD pmos W=0.205u L=0.04u
M479 U656/net24 n616 U656/net32 VDD pmos W=0.205u L=0.04u
M480 U656/net28 U656/net20 U656/net24 VDD pmos W=0.205u L=0.04u
M481 U656/net40 U656/net106 U656/net108 VDD pmos W=0.205u L=0.04u
M482 U656/net40 n619 U656/net104 VDD pmos W=0.205u L=0.04u
M483 U656/net20 U656/net40 VDD VDD pmos W=0.205u L=0.04u
M484 U656/net106 n619 VDD VDD pmos W=0.205u L=0.04u
M485 U656/net104 n618 VDD VDD pmos W=0.205u L=0.04u
M486 U656/net30 n616 VDD VDD pmos W=0.205u L=0.04u
M487 U656/net108 U656/net104 VDD VDD pmos W=0.205u L=0.04u
M488 n615 U656/net28 VDD VDD pmos W=0.205u L=0.04u
M489 U656/net32 n617 VDD VDD pmos W=0.205u L=0.04u
M490 U656/net64 U656/net24 VDD VDD pmos W=0.28u L=0.04u
M491 U656/net24 U656/net30 U656/net045 VDD pmos W=0.205u L=0.04u
M492 U656/net045 U656/net32 VDD VDD pmos W=0.205u L=0.04u
M493 n619 n620 U657/net15 VSS nmos W=0.155u L=0.04u
M494 n619 n621 U657/net15 VSS nmos W=0.155u L=0.04u
M495 U657/net15 n622 VSS VSS nmos W=0.155u L=0.04u
M496 n619 n622 VDD VDD pmos W=0.205u L=0.04u
M497 n619 n620 U657/XI16-net11 VDD pmos W=0.205u L=0.04u
M498 U657/XI16-net11 n621 VDD VDD pmos W=0.205u L=0.04u
M499 n613 n623 VSS VSS nmos W=0.155u L=0.04u
M500 n613 n624 VSS VSS nmos W=0.155u L=0.04u
M501 U658/XI1-net8 n624 VDD VDD pmos W=0.205u L=0.04u
M502 n613 n623 U658/XI1-net8 VDD pmos W=0.205u L=0.04u
M503 n624 n625 VSS VSS nmos W=0.135u L=0.04u
M504 n624 n625 VDD VDD pmos W=0.205u L=0.04u
M505 n612 n626 VSS VSS nmos W=0.155u L=0.04u
M506 n612 U660/net4 VSS VSS nmos W=0.155u L=0.04u
M507 U660/net4 n621 VSS VSS nmos W=0.155u L=0.04u
M508 U660/XU1-net8 U660/net4 VDD VDD pmos W=0.205u L=0.04u
M509 n612 n626 U660/XU1-net8 VDD pmos W=0.205u L=0.04u
M510 U660/net4 n621 VDD VDD pmos W=0.205u L=0.04u
M511 U661/net28 U661/net20 U661/net64 VSS nmos W=0.155u L=0.04u
M512 U661/net24 U661/net30 U661/net32 VSS nmos W=0.155u L=0.04u
M513 U661/net28 U661/net40 U661/net24 VSS nmos W=0.155u L=0.04u
M514 U661/net40 n629 U661/net108 VSS nmos W=0.155u L=0.04u
M515 U661/net40 U661/net106 U661/net104 VSS nmos W=0.155u L=0.04u
M516 U661/net24 n616 U661/net050 VSS nmos W=0.155u L=0.04u
M517 U661/net050 U661/net32 VSS VSS nmos W=0.155u L=0.04u
M518 U661/net20 U661/net40 VSS VSS nmos W=0.155u L=0.04u
M519 U661/net106 n629 VSS VSS nmos W=0.155u L=0.04u
M520 U661/net104 n628 VSS VSS nmos W=0.155u L=0.04u
M521 U661/net30 n616 VSS VSS nmos W=0.155u L=0.04u
M522 U661/net108 U661/net104 VSS VSS nmos W=0.155u L=0.04u
M523 n610 U661/net28 VSS VSS nmos W=0.155u L=0.04u