.SUBCKT s1196 G0 G1 G10 G11 G12 G13 G2 G3 G4 G45 G5 G530 G532 G535 G537 G539 G542 G546 G547 G548 G549 G550 G551 G552 G6 G7 G8 G9 VDD VSS 
M1 NOR3_4/net7 n215 NOR3_4/X_u4-net10 VSS nmos W=0.31u L=0.04u
M2 NOR3_4/X_u4-net10 n221 NOR3_4/X_u4-net13 VSS nmos W=0.31u L=0.04u
M3 NOR3_4/X_u4-net13 G279 VSS VSS nmos W=0.31u L=0.04u
M4 G514 NOR3_4/net7 VSS VSS nmos W=0.31u L=0.04u
M5 NOR3_4/net7 G279 VDD VDD pmos W=0.41u L=0.04u
M6 NOR3_4/net7 n215 VDD VDD pmos W=0.41u L=0.04u
M7 NOR3_4/net7 n221 VDD VDD pmos W=0.41u L=0.04u
M8 G514 NOR3_4/net7 VDD VDD pmos W=0.41u L=0.04u
M9 G506 NOR2_40/net6 VSS VSS nmos W=0.31u L=0.04u
M10 NOR2_40/X_u2-net6 n217 VSS VSS nmos W=0.31u L=0.04u
M11 NOR2_40/net6 n213 NOR2_40/X_u2-net6 VSS nmos W=0.31u L=0.04u
M12 G506 NOR2_40/net6 VDD VDD pmos W=0.41u L=0.04u
M13 NOR2_40/net6 n217 VDD VDD pmos W=0.41u L=0.04u
M14 NOR2_40/net6 n213 VDD VDD pmos W=0.41u L=0.04u
M15 NOR3_2/net7 n220 NOR3_2/X_u4-net10 VSS nmos W=0.31u L=0.04u
M16 NOR3_2/X_u4-net10 n31 NOR3_2/X_u4-net13 VSS nmos W=0.31u L=0.04u
M17 NOR3_2/X_u4-net13 n218 VSS VSS nmos W=0.31u L=0.04u
M18 G507 NOR3_2/net7 VSS VSS nmos W=0.31u L=0.04u
M19 NOR3_2/net7 n218 VDD VDD pmos W=0.41u L=0.04u
M20 NOR3_2/net7 n220 VDD VDD pmos W=0.41u L=0.04u
M21 NOR3_2/net7 n31 VDD VDD pmos W=0.41u L=0.04u
M22 G507 NOR3_2/net7 VDD VDD pmos W=0.41u L=0.04u
M23 G517 NOR2_28/net6 VSS VSS nmos W=0.31u L=0.04u
M24 NOR2_28/X_u2-net6 n228 VSS VSS nmos W=0.31u L=0.04u
M25 NOR2_28/net6 n231 NOR2_28/X_u2-net6 VSS nmos W=0.31u L=0.04u
M26 G517 NOR2_28/net6 VDD VDD pmos W=0.41u L=0.04u
M27 NOR2_28/net6 n228 VDD VDD pmos W=0.41u L=0.04u
M28 NOR2_28/net6 n231 VDD VDD pmos W=0.41u L=0.04u
M29 G513 NOR2_26/net6 VSS VSS nmos W=0.31u L=0.04u
M30 NOR2_26/X_u2-net6 n227 VSS VSS nmos W=0.31u L=0.04u
M31 NOR2_26/net6 n219 NOR2_26/X_u2-net6 VSS nmos W=0.31u L=0.04u
M32 G513 NOR2_26/net6 VDD VDD pmos W=0.41u L=0.04u
M33 NOR2_26/net6 n227 VDD VDD pmos W=0.41u L=0.04u
M34 NOR2_26/net6 n219 VDD VDD pmos W=0.41u L=0.04u
M35 G509 NOR2_25/net6 VSS VSS nmos W=0.31u L=0.04u
M36 NOR2_25/X_u2-net6 n43 VSS VSS nmos W=0.31u L=0.04u
M37 NOR2_25/net6 n230 NOR2_25/X_u2-net6 VSS nmos W=0.31u L=0.04u
M38 G509 NOR2_25/net6 VDD VDD pmos W=0.41u L=0.04u
M39 NOR2_25/net6 n43 VDD VDD pmos W=0.41u L=0.04u
M40 NOR2_25/net6 n230 VDD VDD pmos W=0.41u L=0.04u
M41 G515 NOR2_24/net6 VSS VSS nmos W=0.31u L=0.04u
M42 NOR2_24/X_u2-net6 n232 VSS VSS nmos W=0.31u L=0.04u
M43 NOR2_24/net6 n229 NOR2_24/X_u2-net6 VSS nmos W=0.31u L=0.04u
M44 G515 NOR2_24/net6 VDD VDD pmos W=0.41u L=0.04u
M45 NOR2_24/net6 n232 VDD VDD pmos W=0.41u L=0.04u
M46 NOR2_24/net6 n229 VDD VDD pmos W=0.41u L=0.04u
M47 NOR3_1/net7 n19 NOR3_1/X_u4-net10 VSS nmos W=0.31u L=0.04u
M48 NOR3_1/X_u4-net10 n226 NOR3_1/X_u4-net13 VSS nmos W=0.31u L=0.04u
M49 NOR3_1/X_u4-net13 n224 VSS VSS nmos W=0.31u L=0.04u
M50 G516 NOR3_1/net7 VSS VSS nmos W=0.31u L=0.04u
M51 NOR3_1/net7 n224 VDD VDD pmos W=0.41u L=0.04u
M52 NOR3_1/net7 n19 VDD VDD pmos W=0.41u L=0.04u
M53 NOR3_1/net7 n226 VDD VDD pmos W=0.41u L=0.04u
M54 G516 NOR3_1/net7 VDD VDD pmos W=0.41u L=0.04u
M55 G502 NOR2_22/net6 VSS VSS nmos W=0.31u L=0.04u
M56 NOR2_22/X_u2-net6 n225 VSS VSS nmos W=0.31u L=0.04u
M57 NOR2_22/net6 n233 NOR2_22/X_u2-net6 VSS nmos W=0.31u L=0.04u
M58 G502 NOR2_22/net6 VDD VDD pmos W=0.41u L=0.04u
M59 NOR2_22/net6 n225 VDD VDD pmos W=0.41u L=0.04u
M60 NOR2_22/net6 n233 VDD VDD pmos W=0.41u L=0.04u
M61 G511 AND2_7/net6 VSS VSS nmos W=0.31u L=0.04u
M62 AND2_7/X_u2-net6 G164 VSS VSS nmos W=0.31u L=0.04u
M63 AND2_7/net6 G163 AND2_7/X_u2-net6 VSS nmos W=0.31u L=0.04u
M64 G511 AND2_7/net6 VDD VDD pmos W=0.41u L=0.04u
M65 AND2_7/net6 G164 VDD VDD pmos W=0.41u L=0.04u
M66 AND2_7/net6 G163 VDD VDD pmos W=0.41u L=0.04u
M67 G510 N43 VSS VSS nmos W=0.31u L=0.04u
M68 G510 N43 VDD VDD pmos W=0.41u L=0.04u
M69 G512 N57 VSS VSS nmos W=0.31u L=0.04u
M70 G512 N57 VDD VDD pmos W=0.41u L=0.04u
M71 G519 NOR4_0/net6 VSS VSS nmos W=0.31u L=0.04u
M72 NOR4_0/net6 n222 NOR4_0/XU30-net23 VSS nmos W=0.155u L=0.04u
M73 NOR4_0/XU30-net23 n234 NOR4_0/XU30-net26 VSS nmos W=0.155u L=0.04u
M74 NOR4_0/XU30-net26 n216 NOR4_0/XU30-net29 VSS nmos W=0.155u L=0.04u
M75 NOR4_0/XU30-net29 n223 VSS VSS nmos W=0.155u L=0.04u
M76 G519 NOR4_0/net6 VDD VDD pmos W=0.41u L=0.04u
M77 NOR4_0/net6 n223 VDD VDD pmos W=0.205u L=0.04u
M78 NOR4_0/net6 n216 VDD VDD pmos W=0.205u L=0.04u
M79 NOR4_0/net6 n234 VDD VDD pmos W=0.205u L=0.04u
M80 NOR4_0/net6 n222 VDD VDD pmos W=0.205u L=0.04u
M81 G504 N69 VSS VSS nmos W=0.31u L=0.04u
M82 G504 N69 VDD VDD pmos W=0.41u L=0.04u
M83 G518 N117 VSS VSS nmos W=0.31u L=0.04u
M84 G518 N117 VDD VDD pmos W=0.41u L=0.04u
M85 G503 N50 VSS VSS nmos W=0.31u L=0.04u
M86 G503 N50 VDD VDD pmos W=0.41u L=0.04u
M87 G505 N93 VSS VSS nmos W=0.31u L=0.04u
M88 G505 N93 VDD VDD pmos W=0.41u L=0.04u
M89 G508 N105 VSS VSS nmos W=0.31u L=0.04u
M90 G508 N105 VDD VDD pmos W=0.41u L=0.04u
M91 U253/net36 G11 U253/net24 VSS nmos W=0.155u L=0.04u
M92 U253/net24 n237 VSS VSS nmos W=0.155u L=0.04u
M93 n232 n235 U253/net36 VSS nmos W=0.155u L=0.04u
M94 n232 n236 U253/net36 VSS nmos W=0.155u L=0.04u
M95 n232 n236 U253/net35 VDD pmos W=0.205u L=0.04u
M96 U253/net35 n235 VDD VDD pmos W=0.205u L=0.04u
M97 n232 n237 VDD VDD pmos W=0.205u L=0.04u
M98 n232 G11 VDD VDD pmos W=0.205u L=0.04u
M99 U254/net7 n234 U254/X_u4-net10 VSS nmos W=0.155u L=0.04u
M100 U254/X_u4-net10 n238 U254/X_u4-net13 VSS nmos W=0.155u L=0.04u
M101 U254/X_u4-net13 n239 VSS VSS nmos W=0.155u L=0.04u
M102 n237 U254/net7 VSS VSS nmos W=0.155u L=0.04u
M103 U254/net7 n239 VDD VDD pmos W=0.205u L=0.04u
M104 U254/net7 n234 VDD VDD pmos W=0.205u L=0.04u
M105 U254/net7 n238 VDD VDD pmos W=0.205u L=0.04u
M106 n237 U254/net7 VDD VDD pmos W=0.205u L=0.04u
M107 n236 G8 U255/net27 VSS nmos W=0.155u L=0.04u
M108 U255/net27 G6 VSS VSS nmos W=0.155u L=0.04u
M109 n236 n240 VSS VSS nmos W=0.155u L=0.04u
M110 n236 G6 U255/net13 VDD pmos W=0.205u L=0.04u
M111 U255/net13 n240 VDD VDD pmos W=0.205u L=0.04u
M112 n236 G8 U255/net13 VDD pmos W=0.205u L=0.04u
M113 U256/net30 n241 VSS VSS nmos W=0.155u L=0.04u
M114 n231 n243 U256/net23 VSS nmos W=0.155u L=0.04u
M115 U256/net20 U256/net30 VSS VSS nmos W=0.155u L=0.04u
M116 U256/net23 n242 U256/net20 VSS nmos W=0.155u L=0.04u
M117 U256/net30 n241 VDD VDD pmos W=0.205u L=0.04u
M118 VDD n243 n231 VDD pmos W=0.205u L=0.04u
M119 VDD n242 n231 VDD pmos W=0.205u L=0.04u
M120 VDD U256/net30 n231 VDD pmos W=0.205u L=0.04u
M121 n230 n244 U257/net15 VSS nmos W=0.155u L=0.04u
M122 n230 n245 U257/net15 VSS nmos W=0.155u L=0.04u
M123 U257/net15 n246 VSS VSS nmos W=0.155u L=0.04u
M124 n230 n246 VDD VDD pmos W=0.205u L=0.04u
M125 n230 n244 U257/XI16-net11 VDD pmos W=0.205u L=0.04u
M126 U257/XI16-net11 n245 VDD VDD pmos W=0.205u L=0.04u
M127 n229 G6 U258/XI0-net10 VSS nmos W=0.155u L=0.04u
M128 U258/XI0-net10 n247 U258/XI0-net13 VSS nmos W=0.155u L=0.04u
M129 U258/XI0-net13 n248 VSS VSS nmos W=0.155u L=0.04u
M130 n229 n248 VDD VDD pmos W=0.205u L=0.04u
M131 n229 G6 VDD VDD pmos W=0.205u L=0.04u
M132 n229 n247 VDD VDD pmos W=0.205u L=0.04u
M133 U259/XU1-net6 n250 VSS VSS nmos W=0.155u L=0.04u
M134 n228 n249 U259/XU1-net6 VSS nmos W=0.155u L=0.04u
M135 n228 n250 VDD VDD pmos W=0.155u L=0.04u
M136 n228 n249 VDD VDD pmos W=0.155u L=0.04u
M137 VSS n251 U260/net22 VSS nmos W=0.155u L=0.04u
M138 U260/net22 n241 n250 VSS nmos W=0.155u L=0.04u
M139 U260/net22 G9 n250 VSS nmos W=0.155u L=0.04u
M140 U260/net22 n244 n250 VSS nmos W=0.155u L=0.04u
M141 U260/net38 n244 VDD VDD pmos W=0.205u L=0.04u
M142 U260/net35 G9 U260/net38 VDD pmos W=0.205u L=0.04u
M143 n250 n241 U260/net35 VDD pmos W=0.205u L=0.04u
M144 n250 n251 VDD VDD pmos W=0.205u L=0.04u
M145 n227 G6 U261/XI0-net10 VSS nmos W=0.155u L=0.04u
M146 U261/XI0-net10 n252 U261/XI0-net13 VSS nmos W=0.155u L=0.04u
M147 U261/XI0-net13 n253 VSS VSS nmos W=0.155u L=0.04u
M148 n227 n253 VDD VDD pmos W=0.205u L=0.04u
M149 n227 G6 VDD VDD pmos W=0.205u L=0.04u
M150 n227 n252 VDD VDD pmos W=0.205u L=0.04u
M151 n226 n254 U262/net15 VSS nmos W=0.155u L=0.04u
M152 n226 n255 U262/net15 VSS nmos W=0.155u L=0.04u
M153 U262/net15 n256 VSS VSS nmos W=0.155u L=0.04u
M154 n226 n256 VDD VDD pmos W=0.205u L=0.04u
M155 n226 n254 U262/XI16-net11 VDD pmos W=0.205u L=0.04u
M156 U262/XI16-net11 n255 VDD VDD pmos W=0.205u L=0.04u
M157 U263/net19 G6 VSS VSS nmos W=0.155u L=0.04u
M158 n255 G6 U263/net40 VSS nmos W=0.155u L=0.04u
M159 n255 U263/net19 U263/net36 VSS nmos W=0.155u L=0.04u
M160 U263/net40 n258 VSS VSS nmos W=0.31u L=0.04u
M161 U263/net36 n257 VSS VSS nmos W=0.155u L=0.04u
M162 U263/net19 G6 VDD VDD pmos W=0.205u L=0.04u
M163 n255 U263/net19 U263/net26 VDD pmos W=0.325u L=0.04u
M164 U263/net26 n258 VDD VDD pmos W=0.41u L=0.04u
M165 n255 G6 U263/net30 VDD pmos W=0.325u L=0.04u
M166 U263/net30 n257 VDD VDD pmos W=0.205u L=0.04u
M167 n254 n43 VSS VSS nmos W=0.155u L=0.04u
M168 n254 n259 VSS VSS nmos W=0.155u L=0.04u
M169 U264/XI1-net8 n259 VDD VDD pmos W=0.205u L=0.04u
M170 n254 n43 U264/XI1-net8 VDD pmos W=0.205u L=0.04u
M171 n225 G2 U265/XI0-net10 VSS nmos W=0.155u L=0.04u
M172 U265/XI0-net10 n260 U265/XI0-net13 VSS nmos W=0.155u L=0.04u
M173 U265/XI0-net13 n261 VSS VSS nmos W=0.155u L=0.04u
M174 n225 n261 VDD VDD pmos W=0.205u L=0.04u
M175 n225 G2 VDD VDD pmos W=0.205u L=0.04u
M176 n225 n260 VDD VDD pmos W=0.205u L=0.04u
M177 U266/net19 G4 VSS VSS nmos W=0.155u L=0.04u
M178 n261 G4 U266/net40 VSS nmos W=0.155u L=0.04u
M179 n261 U266/net19 U266/net36 VSS nmos W=0.155u L=0.04u
M180 U266/net40 n262 VSS VSS nmos W=0.31u L=0.04u
M181 U266/net36 n43 VSS VSS nmos W=0.155u L=0.04u
M182 U266/net19 G4 VDD VDD pmos W=0.205u L=0.04u
M183 n261 U266/net19 U266/net26 VDD pmos W=0.325u L=0.04u
M184 U266/net26 n262 VDD VDD pmos W=0.41u L=0.04u
M185 n261 G4 U266/net30 VDD pmos W=0.325u L=0.04u
M186 U266/net30 n43 VDD VDD pmos W=0.205u L=0.04u
M187 n224 n263 U267/net15 VSS nmos W=0.155u L=0.04u
M188 n224 n264 U267/net15 VSS nmos W=0.155u L=0.04u
M189 U267/net15 G3 VSS VSS nmos W=0.155u L=0.04u
M190 n224 G3 VDD VDD pmos W=0.205u L=0.04u
M191 n224 n263 U267/XI16-net11 VDD pmos W=0.205u L=0.04u
M192 U267/XI16-net11 n264 VDD VDD pmos W=0.205u L=0.04u
M193 n264 n266 VSS VSS nmos W=0.155u L=0.04u
M194 n264 U268/net4 VSS VSS nmos W=0.155u L=0.04u
M195 U268/net4 n265 VSS VSS nmos W=0.155u L=0.04u
M196 U268/XU1-net8 U268/net4 VDD VDD pmos W=0.205u L=0.04u
M197 n264 n266 U268/XU1-net8 VDD pmos W=0.205u L=0.04u
M198 U268/net4 n265 VDD VDD pmos W=0.205u L=0.04u
M199 VSS n260 U269/net22 VSS nmos W=0.155u L=0.04u
M200 U269/net22 n269 n223 VSS nmos W=0.155u L=0.04u
M201 U269/net22 n268 n223 VSS nmos W=0.155u L=0.04u
M202 U269/net22 n267 n223 VSS nmos W=0.155u L=0.04u
M203 U269/net38 n267 VDD VDD pmos W=0.205u L=0.04u
M204 U269/net35 n268 U269/net38 VDD pmos W=0.205u L=0.04u
M205 n223 n269 U269/net35 VDD pmos W=0.205u L=0.04u
M206 n223 n260 VDD VDD pmos W=0.205u L=0.04u
M207 n269 n270 VSS VSS nmos W=0.155u L=0.04u
M208 n269 n258 VSS VSS nmos W=0.155u L=0.04u
M209 U270/XI1-net8 n258 VDD VDD pmos W=0.205u L=0.04u
M210 n269 n270 U270/XI1-net8 VDD pmos W=0.205u L=0.04u
M211 n222 n271 U271/XI0-net10 VSS nmos W=0.155u L=0.04u
M212 U271/XI0-net10 G2 U271/XI0-net13 VSS nmos W=0.155u L=0.04u
M213 U271/XI0-net13 n272 VSS VSS nmos W=0.155u L=0.04u
M214 n222 n272 VDD VDD pmos W=0.205u L=0.04u
M215 n222 n271 VDD VDD pmos W=0.205u L=0.04u
M216 n222 G2 VDD VDD pmos W=0.205u L=0.04u
M217 U272/net11 n267 n272 VDD pmos W=0.205u L=0.04u
M218 U272/net11 n262 n272 VDD pmos W=0.205u L=0.04u
M219 U272/net11 n273 U272/XI16-net11 VDD pmos W=0.205u L=0.04u
M220 U272/XI16-net11 n274 VDD VDD pmos W=0.205u L=0.04u
M221 n272 n274 VSS VSS nmos W=0.155u L=0.04u
M222 n272 n273 VSS VSS nmos W=0.155u L=0.04u
M223 n272 n267 U272/XI12-net17 VSS nmos W=0.155u L=0.04u
M224 U272/XI12-net17 n262 VSS VSS nmos W=0.155u L=0.04u
M225 n273 n275 VSS VSS nmos W=0.135u L=0.04u
M226 n273 n275 VDD VDD pmos W=0.205u L=0.04u
M227 U274/net36 n235 U274/net24 VSS nmos W=0.155u L=0.04u
M228 U274/net24 G34 VSS VSS nmos W=0.155u L=0.04u
M229 n221 n276 U274/net36 VSS nmos W=0.155u L=0.04u
M230 n221 n240 U274/net36 VSS nmos W=0.155u L=0.04u
M231 n221 n240 U274/net35 VDD pmos W=0.205u L=0.04u
M232 U274/net35 n276 VDD VDD pmos W=0.205u L=0.04u
M233 n221 G34 VDD VDD pmos W=0.205u L=0.04u
M234 n221 n235 VDD VDD pmos W=0.205u L=0.04u
M235 n220 U275/net28 VSS VSS nmos W=0.155u L=0.04u
M236 U275/net47 n277 VSS VSS nmos W=0.155u L=0.04u
M237 U275/net28 U275/net6 U275/net47 VSS nmos W=0.155u L=0.04u
M238 U275/net44 G32 VSS VSS nmos W=0.155u L=0.04u
M239 U275/net28 n278 U275/net44 VSS nmos W=0.155u L=0.04u
M240 U275/net6 n278 VSS VSS nmos W=0.155u L=0.04u
M241 n220 U275/net28 VDD VDD pmos W=0.205u L=0.04u
M242 VDD n277 U275/net47 VDD pmos W=0.205u L=0.04u
M243 U275/net47 n278 U275/net28 VDD pmos W=0.205u L=0.04u
M244 U275/net44 U275/net6 U275/net28 VDD pmos W=0.205u L=0.04u
M245 VDD G32 U275/net44 VDD pmos W=0.205u L=0.04u
M246 VDD n278 U275/net6 VDD pmos W=0.205u L=0.04u
M247 U276/net36 n280 U276/net24 VSS nmos W=0.155u L=0.04u
M248 U276/net24 G8 VSS VSS nmos W=0.155u L=0.04u
M249 n219 G6 U276/net36 VSS nmos W=0.155u L=0.04u
M250 n219 n279 U276/net36 VSS nmos W=0.155u L=0.04u
M251 n219 n279 U276/net35 VDD pmos W=0.205u L=0.04u
M252 U276/net35 G6 VDD VDD pmos W=0.205u L=0.04u
M253 n219 G8 VDD VDD pmos W=0.205u L=0.04u
M254 n219 n280 VDD VDD pmos W=0.205u L=0.04u
M255 VSS n281 U277/net22 VSS nmos W=0.155u L=0.04u
M256 U277/net22 n276 n280 VSS nmos W=0.155u L=0.04u
M257 U277/net22 G11 n280 VSS nmos W=0.155u L=0.04u
M258 U277/net22 n240 n280 VSS nmos W=0.155u L=0.04u
M259 U277/net38 n240 VDD VDD pmos W=0.205u L=0.04u
M260 U277/net35 G11 U277/net38 VDD pmos W=0.205u L=0.04u
M261 n280 n276 U277/net35 VDD pmos W=0.205u L=0.04u
M262 n280 n281 VDD VDD pmos W=0.205u L=0.04u
M263 n281 G31 VSS VSS nmos W=0.155u L=0.04u
M264 n281 n279 VSS VSS nmos W=0.155u L=0.04u
M265 U278/XI1-net8 n279 VDD VDD pmos W=0.205u L=0.04u
M266 n281 G31 U278/XI1-net8 VDD pmos W=0.205u L=0.04u
M267 n217 n282 U279/XI0-net10 VSS nmos W=0.155u L=0.04u
M268 U279/XI0-net10 n31 U279/XI0-net13 VSS nmos W=0.155u L=0.04u
M269 U279/XI0-net13 n283 VSS VSS nmos W=0.155u L=0.04u
M270 n217 n283 VDD VDD pmos W=0.205u L=0.04u
M271 n217 n282 VDD VDD pmos W=0.205u L=0.04u
M272 n217 n31 VDD VDD pmos W=0.205u L=0.04u
M273 n216 n284 U280/XI0-net10 VSS nmos W=0.155u L=0.04u
M274 U280/XI0-net10 n285 U280/XI0-net13 VSS nmos W=0.155u L=0.04u
M275 U280/XI0-net13 n252 VSS VSS nmos W=0.155u L=0.04u
M276 n216 n252 VDD VDD pmos W=0.205u L=0.04u
M277 n216 n284 VDD VDD pmos W=0.205u L=0.04u
M278 n216 n285 VDD VDD pmos W=0.205u L=0.04u
M279 n215 n286 U281/XI0-net10 VSS nmos W=0.155u L=0.04u
M280 U281/XI0-net10 n239 U281/XI0-net13 VSS nmos W=0.155u L=0.04u
M281 U281/XI0-net13 n287 VSS VSS nmos W=0.155u L=0.04u
M282 n215 n287 VDD VDD pmos W=0.205u L=0.04u
M283 n215 n286 VDD VDD pmos W=0.205u L=0.04u
M284 n215 n239 VDD VDD pmos W=0.205u L=0.04u
M285 U282/p2 G1 VSS VSS nmos W=0.155u L=0.04u
M286 U282/p0 G0 U282/p1 VSS nmos W=0.155u L=0.04u
M287 U282/p1 n289 U282/p2 VSS nmos W=0.155u L=0.04u
M288 n213 n288 U282/p0 VSS nmos W=0.155u L=0.04u
M289 n213 n289 VDD VDD pmos W=0.205u L=0.04u
M290 n213 G0 VDD VDD pmos W=0.205u L=0.04u
M291 n213 n288 VDD VDD pmos W=0.205u L=0.04u
M292 n213 G1 VDD VDD pmos W=0.205u L=0.04u
M293 n289 G4 VSS VSS nmos W=0.155u L=0.04u
M294 n289 n31 VSS VSS nmos W=0.155u L=0.04u
M295 U283/XI1-net8 n31 VDD VDD pmos W=0.205u L=0.04u
M296 n289 G4 U283/XI1-net8 VDD pmos W=0.205u L=0.04u
M297 N93 n283 VSS VSS nmos W=0.155u L=0.04u
M298 N93 n241 U284/XI17-net17 VSS nmos W=0.155u L=0.04u
M299 U284/XI17-net17 n292 VSS VSS nmos W=0.155u L=0.04u
M300 N93 n290 U284/XI10-net17 VSS nmos W=0.155u L=0.04u
M301 U284/XI10-net17 n291 VSS VSS nmos W=0.155u L=0.04u
M302 U284/net30 n290 N93 VDD pmos W=0.205u L=0.04u
M303 U284/net30 n291 N93 VDD pmos W=0.205u L=0.04u
M304 VDD n283 U284/net36 VDD pmos W=0.205u L=0.04u
M305 U284/net36 n292 U284/net30 VDD pmos W=0.205u L=0.04u
M306 U284/net36 n241 U284/net30 VDD pmos W=0.205u L=0.04u
M307 U285/XU1-net6 n43 VSS VSS nmos W=0.155u L=0.04u
M308 n241 n285 U285/XU1-net6 VSS nmos W=0.155u L=0.04u
M309 n241 n43 VDD VDD pmos W=0.155u L=0.04u
M310 n241 n285 VDD VDD pmos W=0.155u L=0.04u
M311 U286/net14 n248 U286/net20 VSS nmos W=0.155u L=0.04u
M312 U286/net14 n252 U286/net20 VSS nmos W=0.155u L=0.04u
M313 U286/net20 n293 VSS VSS nmos W=0.155u L=0.04u
M314 N69 U286/net14 VSS VSS nmos W=0.155u L=0.04u
M315 N69 U286/net14 VDD VDD pmos W=0.205u L=0.04u
M316 U286/net14 n293 VDD VDD pmos W=0.205u L=0.04u
M317 U286/net24 n248 VDD VDD pmos W=0.205u L=0.04u
M318 U286/net14 n252 U286/net24 VDD pmos W=0.205u L=0.04u
M319 N57 G2 U287/net15 VSS nmos W=0.155u L=0.04u
M320 N57 n294 U287/net15 VSS nmos W=0.155u L=0.04u
M321 U287/net15 n295 VSS VSS nmos W=0.155u L=0.04u
M322 N57 n295 VDD VDD pmos W=0.205u L=0.04u
M323 N57 G2 U287/XI16-net11 VDD pmos W=0.205u L=0.04u
M324 U287/XI16-net11 n294 VDD VDD pmos W=0.205u L=0.04u
M325 U288/XU1-net6 n244 VSS VSS nmos W=0.155u L=0.04u
M326 N50 n238 U288/XU1-net6 VSS nmos W=0.155u L=0.04u
M327 N50 n244 VDD VDD pmos W=0.155u L=0.04u
M328 N50 n238 VDD VDD pmos W=0.155u L=0.04u
M329 N43 G9 U289/net15 VSS nmos W=0.155u L=0.04u
M330 N43 G6 U289/net15 VSS nmos W=0.155u L=0.04u
M331 U289/net15 n239 VSS VSS nmos W=0.155u L=0.04u
M332 N43 n239 VDD VDD pmos W=0.205u L=0.04u
M333 N43 G9 U289/XI16-net11 VDD pmos W=0.205u L=0.04u
M334 U289/XI16-net11 G6 VDD VDD pmos W=0.205u L=0.04u
M335 U290/XU1-net6 G9 VSS VSS nmos W=0.155u L=0.04u
M336 n239 G6 U290/XU1-net6 VSS nmos W=0.155u L=0.04u
M337 n239 G9 VDD VDD pmos W=0.155u L=0.04u
M338 n239 G6 VDD VDD pmos W=0.155u L=0.04u
M339 N117 n298 VSS VSS nmos W=0.155u L=0.04u
M340 N117 n297 VSS VSS nmos W=0.155u L=0.04u
M341 N117 n296 VSS VSS nmos W=0.155u L=0.04u
M342 U291/net25 n298 VDD VDD pmos W=0.41u L=0.04u
M343 U291/net28 n297 U291/net25 VDD pmos W=0.41u L=0.04u
M344 N117 n296 U291/net28 VDD pmos W=0.41u L=0.04u
M345 N105 n300 VSS VSS nmos W=0.155u L=0.04u
M346 N105 U292/net4 VSS VSS nmos W=0.155u L=0.04u
M347 U292/net4 n299 VSS VSS nmos W=0.155u L=0.04u
M348 U292/XU1-net8 U292/net4 VDD VDD pmos W=0.205u L=0.04u
M349 N105 n300 U292/XU1-net8 VDD pmos W=0.205u L=0.04u
M350 U292/net4 n299 VDD VDD pmos W=0.205u L=0.04u
M351 G552 n302 U293/net27 VSS nmos W=0.155u L=0.04u
M352 U293/net39 n305 VSS VSS nmos W=0.155u L=0.04u
M353 U293/net27 n303 U293/net39 VSS nmos W=0.155u L=0.04u
M354 U293/net27 n304 U293/net39 VSS nmos W=0.155u L=0.04u
M355 G552 n301 U293/net27 VSS nmos W=0.155u L=0.04u
M356 U293/net39 G40 VSS VSS nmos W=0.155u L=0.04u
M357 G552 n305 U293/net46 VDD pmos W=0.205u L=0.04u
M358 U293/net46 G40 VDD VDD pmos W=0.205u L=0.04u
M359 G552 n301 U293/net34 VDD pmos W=0.205u L=0.04u
M360 U293/net34 n302 VDD VDD pmos W=0.205u L=0.04u
M361 G552 n304 U293/net37 VDD pmos W=0.205u L=0.04u
M362 U293/net37 n303 VDD VDD pmos W=0.205u L=0.04u
M363 U294/net17 n266 VSS VSS nmos W=0.155u L=0.04u
M364 U294/net17 n307 VSS VSS nmos W=0.155u L=0.04u
M365 U294/net63 n306 VSS VSS nmos W=0.155u L=0.04u
M366 n303 U294/net17 VSS VSS nmos W=0.155u L=0.04u
M367 n303 G6 U294/net63 VSS nmos W=0.155u L=0.04u
M368 n303 n306 U294/net31 VDD pmos W=0.205u L=0.04u
M369 U294/net39 n266 VDD VDD pmos W=0.195u L=0.04u
M370 U294/net31 U294/net17 VDD VDD pmos W=0.195u L=0.04u
M371 n303 G6 U294/net31 VDD pmos W=0.195u L=0.04u
M372 U294/net17 n307 U294/net39 VDD pmos W=0.195u L=0.04u
M373 n306 U295/net27 VDD VDD pmos W=0.205u L=0.04u
M374 U295/net11 n242 U295/net27 VDD pmos W=0.205u L=0.04u
M375 U295/net11 n290 U295/net27 VDD pmos W=0.205u L=0.04u
M376 U295/net11 n292 U295/XI16-net11 VDD pmos W=0.205u L=0.04u
M377 U295/XI16-net11 n283 VDD VDD pmos W=0.205u L=0.04u
M378 U295/net27 n283 VSS VSS nmos W=0.155u L=0.04u
M379 U295/net27 n292 VSS VSS nmos W=0.155u L=0.04u
M380 n306 U295/net27 VSS VSS nmos W=0.155u L=0.04u
M381 U295/net27 n242 U295/XI12-net17 VSS nmos W=0.155u L=0.04u
M382 U295/XI12-net17 n290 VSS VSS nmos W=0.155u L=0.04u
M383 n292 n233 VSS VSS nmos W=0.135u L=0.04u
M384 n292 n233 VDD VDD pmos W=0.205u L=0.04u
M385 U297/XU1-net6 n258 VSS VSS nmos W=0.155u L=0.04u
M386 n233 n308 U297/XU1-net6 VSS nmos W=0.155u L=0.04u
M387 n233 n258 VDD VDD pmos W=0.155u L=0.04u
M388 n233 n308 VDD VDD pmos W=0.155u L=0.04u
M389 U298/net36 n285 U298/net27 VSS nmos W=0.155u L=0.04u
M390 U298/net39 n290 VSS VSS nmos W=0.155u L=0.04u
M391 U298/net27 n310 U298/net39 VSS nmos W=0.155u L=0.04u
M392 U298/net27 n311 U298/net39 VSS nmos W=0.155u L=0.04u
M393 U298/net36 n309 U298/net27 VSS nmos W=0.155u L=0.04u
M394 U298/net39 n312 VSS VSS nmos W=0.155u L=0.04u
M395 n301 U298/net36 VSS VSS nmos W=0.155u L=0.04u
M396 n301 U298/net36 VDD VDD pmos W=0.205u L=0.04u
M397 U298/net36 n290 U298/net46 VDD pmos W=0.205u L=0.04u
M398 U298/net46 n312 VDD VDD pmos W=0.205u L=0.04u
M399 U298/net36 n309 U298/net34 VDD pmos W=0.205u L=0.04u
M400 U298/net34 n285 VDD VDD pmos W=0.205u L=0.04u
M401 U298/net36 n311 U298/net37 VDD pmos W=0.205u L=0.04u
M402 U298/net37 n310 VDD VDD pmos W=0.205u L=0.04u
M403 G551 n313 U299/net15 VSS nmos W=0.155u L=0.04u
M404 G551 n302 U299/net15 VSS nmos W=0.155u L=0.04u
M405 U299/net15 n314 VSS VSS nmos W=0.155u L=0.04u
M406 G551 n314 VDD VDD pmos W=0.205u L=0.04u
M407 G551 n313 U299/XI16-net11 VDD pmos W=0.205u L=0.04u
M408 U299/XI16-net11 n302 VDD VDD pmos W=0.205u L=0.04u
M409 n314 n315 U300/net23 VDD pmos W=0.205u L=0.04u
M410 n314 G39 U300/net23 VDD pmos W=0.205u L=0.04u
M411 n314 G4 U300/net23 VDD pmos W=0.205u L=0.04u
M412 U300/net23 n287 VDD VDD pmos W=0.205u L=0.04u
M413 U300/net23 n316 VDD VDD pmos W=0.205u L=0.04u
M414 U300/XI20-net13 G39 VSS VSS nmos W=0.155u L=0.04u
M415 n314 n315 U300/XI20-net17 VSS nmos W=0.155u L=0.04u
M416 U300/XI20-net17 G4 U300/XI20-net13 VSS nmos W=0.155u L=0.04u
M417 n314 n287 U300/XI17-net17 VSS nmos W=0.155u L=0.04u
M418 U300/XI17-net17 n316 VSS VSS nmos W=0.155u L=0.04u
M419 n316 n43 U301/net10 VSS nmos W=0.155u L=0.04u
M420 U301/net10 n318 VSS VSS nmos W=0.155u L=0.04u
M421 n316 n317 U301/net10 VSS nmos W=0.155u L=0.04u
M422 U301/net10 n311 VSS VSS nmos W=0.155u L=0.04u
M423 U301/net30 n318 VDD VDD pmos W=0.205u L=0.04u
M424 n316 n43 U301/net24 VDD pmos W=0.205u L=0.04u
M425 U301/net24 n317 VDD VDD pmos W=0.205u L=0.04u
M426 n316 n311 U301/net30 VDD pmos W=0.205u L=0.04u
M427 n317 n320 VSS VSS nmos W=0.155u L=0.04u
M428 n317 n319 U302/XI17-net17 VSS nmos W=0.155u L=0.04u
M429 U302/XI17-net17 n262 VSS VSS nmos W=0.155u L=0.04u
M430 n317 n311 U302/XI10-net17 VSS nmos W=0.155u L=0.04u
M431 U302/XI10-net17 n267 VSS VSS nmos W=0.155u L=0.04u
M432 U302/net30 n311 n317 VDD pmos W=0.205u L=0.04u
M433 U302/net30 n267 n317 VDD pmos W=0.205u L=0.04u
M434 VDD n320 U302/net36 VDD pmos W=0.205u L=0.04u
M435 U302/net36 n262 U302/net30 VDD pmos W=0.205u L=0.04u
M436 U302/net36 n319 U302/net30 VDD pmos W=0.205u L=0.04u
M437 U303/net32 G0 VSS VSS nmos W=0.155u L=0.04u
M438 U303/net59 n321 U303/net32 VSS nmos W=0.155u L=0.04u
M439 U303/net59 n274 VSS VSS nmos W=0.155u L=0.04u
M440 n319 U303/net59 VSS VSS nmos W=0.155u L=0.04u
M441 n319 U303/net59 VDD VDD pmos W=0.2u L=0.04u
M442 U303/net59 n321 U303/net22 VDD pmos W=0.205u L=0.04u
M443 U303/net59 G0 U303/net22 VDD pmos W=0.205u L=0.04u
M444 U303/net22 n274 VDD VDD pmos W=0.2u L=0.04u
M445 n313 n323 VSS VSS nmos W=0.155u L=0.04u
M446 n313 n322 U304/XI17-net17 VSS nmos W=0.155u L=0.04u
M447 U304/XI17-net17 n43 VSS VSS nmos W=0.155u L=0.04u
M448 n313 n311 U304/XI10-net17 VSS nmos W=0.155u L=0.04u
M449 U304/XI10-net17 n308 VSS VSS nmos W=0.155u L=0.04u
M450 U304/net30 n311 n313 VDD pmos W=0.205u L=0.04u
M451 U304/net30 n308 n313 VDD pmos W=0.205u L=0.04u
M452 VDD n323 U304/net36 VDD pmos W=0.205u L=0.04u
M453 U304/net36 n43 U304/net30 VDD pmos W=0.205u L=0.04u
M454 U304/net36 n322 U304/net30 VDD pmos W=0.205u L=0.04u
M455 U305/net36 n307 U305/net24 VSS nmos W=0.155u L=0.04u
M456 U305/net24 n258 VSS VSS nmos W=0.155u L=0.04u
M457 n323 G1 U305/net36 VSS nmos W=0.155u L=0.04u
M458 n323 n257 U305/net36 VSS nmos W=0.155u L=0.04u
M459 n323 n257 U305/net35 VDD pmos W=0.205u L=0.04u
M460 U305/net35 G1 VDD VDD pmos W=0.205u L=0.04u
M461 n323 n258 VDD VDD pmos W=0.205u L=0.04u
M462 n323 n307 VDD VDD pmos W=0.205u L=0.04u
M463 G550 n324 U306/net26 VSS nmos W=0.155u L=0.04u
M464 G550 n302 U306/net26 VSS nmos W=0.155u L=0.04u
M465 U306/net29 n326 VSS VSS nmos W=0.155u L=0.04u
M466 U306/net26 n262 U306/net29 VSS nmos W=0.155u L=0.04u
M467 U306/net26 n325 U306/net29 VSS nmos W=0.155u L=0.04u
M468 G550 n302 U306/net43 VDD pmos W=0.205u L=0.04u
M469 G550 n325 U306/net49 VDD pmos W=0.205u L=0.04u
M470 U306/net49 n262 VDD VDD pmos W=0.205u L=0.04u
M471 U306/net43 n324 VDD VDD pmos W=0.205u L=0.04u
M472 G550 n326 VDD VDD pmos W=0.205u L=0.04u
M473 VSS n327 U307/net22 VSS nmos W=0.155u L=0.04u
M474 U307/net22 n305 U307/net30 VSS nmos W=0.155u L=0.04u
M475 U307/net22 n267 U307/net30 VSS nmos W=0.155u L=0.04u
M476 U307/net22 G29 U307/net30 VSS nmos W=0.155u L=0.04u
M477 n326 U307/net30 VSS VSS nmos W=0.155u L=0.04u
M478 n326 U307/net30 VDD VDD pmos W=0.205u L=0.04u
M479 U307/net38 G29 VDD VDD pmos W=0.205u L=0.04u
M480 U307/net35 n267 U307/net38 VDD pmos W=0.205u L=0.04u
M481 U307/net30 n305 U307/net35 VDD pmos W=0.205u L=0.04u
M482 U307/net30 n327 VDD VDD pmos W=0.205u L=0.04u
M483 n327 n294 U308/net19 VDD pmos W=0.205u L=0.04u
M484 n327 n315 U308/net19 VDD pmos W=0.205u L=0.04u
M485 n327 n257 U308/net19 VDD pmos W=0.205u L=0.04u
M486 U308/net19 n328 VDD VDD pmos W=0.205u L=0.04u
M487 n327 n328 VSS VSS nmos W=0.155u L=0.04u
M488 U308/XI20-net13 n315 VSS VSS nmos W=0.155u L=0.04u
M489 n327 n294 U308/XI20-net17 VSS nmos W=0.155u L=0.04u
M490 U308/XI20-net17 n257 U308/XI20-net13 VSS nmos W=0.155u L=0.04u
M491 n315 n304 VSS VSS nmos W=0.135u L=0.04u
M492 n315 n304 VDD VDD pmos W=0.205u L=0.04u
M493 U310/net19 n311 VSS VSS nmos W=0.155u L=0.04u
M494 n324 n311 U310/net40 VSS nmos W=0.155u L=0.04u
M495 n324 U310/net19 U310/net36 VSS nmos W=0.155u L=0.04u
M496 U310/net40 n329 VSS VSS nmos W=0.31u L=0.04u
M497 U310/net36 n290 VSS VSS nmos W=0.155u L=0.04u
M498 U310/net19 n311 VDD VDD pmos W=0.205u L=0.04u
M499 n324 U310/net19 U310/net26 VDD pmos W=0.325u L=0.04u
M500 U310/net26 n329 VDD VDD pmos W=0.41u L=0.04u
M501 n324 n311 U310/net30 VDD pmos W=0.325u L=0.04u
M502 U310/net30 n290 VDD VDD pmos W=0.205u L=0.04u
M503 n329 G5 VSS VSS nmos W=0.155u L=0.04u
M504 n329 n266 VSS VSS nmos W=0.155u L=0.04u
M505 U311/XI1-net8 n266 VDD VDD pmos W=0.205u L=0.04u
M506 n329 G5 U311/XI1-net8 VDD pmos W=0.205u L=0.04u
M507 n290 n330 VSS VSS nmos W=0.135u L=0.04u
M508 n290 n330 VDD VDD pmos W=0.205u L=0.04u
M509 U313/net20 n328 VSS VSS nmos W=0.155u L=0.04u
M510 G549 n332 U313/p0 VSS nmos W=0.155u L=0.04u
M511 U313/p2 U313/net20 VSS VSS nmos W=0.155u L=0.04u
M512 U313/p1 n325 U313/p2 VSS nmos W=0.155u L=0.04u
M513 U313/p0 n331 U313/p1 VSS nmos W=0.155u L=0.04u
M514 U313/net20 n328 VDD VDD pmos W=0.205u L=0.04u
M515 G549 n325 VDD VDD pmos W=0.205u L=0.04u
M516 G549 n332 VDD VDD pmos W=0.205u L=0.04u
M517 G549 n331 VDD VDD pmos W=0.205u L=0.04u
M518 G549 U313/net20 VDD VDD pmos W=0.205u L=0.04u
M519 n332 n311 U314/net19 VDD pmos W=0.205u L=0.04u
M520 n332 n287 U314/net19 VDD pmos W=0.205u L=0.04u
M521 n332 n262 U314/net19 VDD pmos W=0.205u L=0.04u
M522 U314/net19 n333 VDD VDD pmos W=0.205u L=0.04u
M523 n332 n333 VSS VSS nmos W=0.155u L=0.04u
M524 U314/XI20-net13 n287 VSS VSS nmos W=0.155u L=0.04u
M525 n332 n311 U314/XI20-net17 VSS nmos W=0.155u L=0.04u
M526 U314/XI20-net17 n262 U314/XI20-net13 VSS nmos W=0.155u L=0.04u
M527 U315/net11 G3 n333 VDD pmos W=0.205u L=0.04u
M528 U315/net11 G4 n333 VDD pmos W=0.205u L=0.04u
M529 U315/net11 n304 U315/XI16-net11 VDD pmos W=0.205u L=0.04u
M530 U315/XI16-net11 n330 VDD VDD pmos W=0.205u L=0.04u
M531 n333 n330 VSS VSS nmos W=0.155u L=0.04u
M532 n333 n304 VSS VSS nmos W=0.155u L=0.04u
M533 n333 G3 U315/XI12-net17 VSS nmos W=0.155u L=0.04u
M534 U315/XI12-net17 G4 VSS VSS nmos W=0.155u L=0.04u
M535 n304 n31 U316/XI0-net10 VSS nmos W=0.155u L=0.04u
M536 U316/XI0-net10 n278 U316/XI0-net13 VSS nmos W=0.155u L=0.04u
M537 U316/XI0-net13 n282 VSS VSS nmos W=0.155u L=0.04u
M538 n304 n282 VDD VDD pmos W=0.205u L=0.04u
M539 n304 n31 VDD VDD pmos W=0.205u L=0.04u
M540 n304 n278 VDD VDD pmos W=0.205u L=0.04u
M541 U317/net36 G1 U317/net24 VSS nmos W=0.155u L=0.04u
M542 U317/net24 n335 VSS VSS nmos W=0.155u L=0.04u
M543 n331 n283 U317/net36 VSS nmos W=0.155u L=0.04u
M544 n331 n334 U317/net36 VSS nmos W=0.155u L=0.04u
M545 n331 n334 U317/net35 VDD pmos W=0.205u L=0.04u
M546 U317/net35 n283 VDD VDD pmos W=0.205u L=0.04u
M547 n331 n335 VDD VDD pmos W=0.205u L=0.04u
M548 n331 G1 VDD VDD pmos W=0.205u L=0.04u
M549 n334 n270 U318/net23 VDD pmos W=0.205u L=0.04u
M550 n334 G4 U318/net23 VDD pmos W=0.205u L=0.04u
M551 n334 n307 U318/net23 VDD pmos W=0.205u L=0.04u
M552 U318/net23 n266 VDD VDD pmos W=0.205u L=0.04u
M553 U318/net23 n43 VDD VDD pmos W=0.205u L=0.04u
M554 U318/XI20-net13 G4 VSS VSS nmos W=0.155u L=0.04u
M555 n334 n270 U318/XI20-net17 VSS nmos W=0.155u L=0.04u
M556 U318/XI20-net17 n307 U318/XI20-net13 VSS nmos W=0.155u L=0.04u
M557 n334 n266 U318/XI17-net17 VSS nmos W=0.155u L=0.04u
M558 U318/XI17-net17 n43 VSS VSS nmos W=0.155u L=0.04u
M559 n283 n266 VSS VSS nmos W=0.155u L=0.04u
M560 n283 n258 VSS VSS nmos W=0.155u L=0.04u
M561 U319/XI1-net8 n258 VDD VDD pmos W=0.205u L=0.04u
M562 n283 n266 U319/XI1-net8 VDD pmos W=0.205u L=0.04u
M563 n325 n311 U320/XI0-net10 VSS nmos W=0.155u L=0.04u
M564 U320/XI0-net10 n267 U320/XI0-net13 VSS nmos W=0.155u L=0.04u
M565 U320/XI0-net13 n287 VSS VSS nmos W=0.155u L=0.04u
M566 n325 n287 VDD VDD pmos W=0.205u L=0.04u
M567 n325 n311 VDD VDD pmos W=0.205u L=0.04u
M568 n325 n267 VDD VDD pmos W=0.205u L=0.04u
M569 n328 n262 VSS VSS nmos W=0.155u L=0.04u
M570 n328 G13 VSS VSS nmos W=0.155u L=0.04u
M571 n328 G33 VSS VSS nmos W=0.155u L=0.04u
M572 U321/net25 n262 VDD VDD pmos W=0.41u L=0.04u
M573 U321/net28 G13 U321/net25 VDD pmos W=0.41u L=0.04u
M574 n328 G33 U321/net28 VDD pmos W=0.41u L=0.04u
M575 G548 G42 U322/net10 VSS nmos W=0.155u L=0.04u
M576 U322/net10 n337 VSS VSS nmos W=0.155u L=0.04u