.SUBCKT s1488 CK CLR v0 v1 Av13_D_10B Av13_D_11B Av13_D_12B Av13_D_13B Av13_D_14B Av13_D_15B Av13_D_16B Av13_D_17B Av13_D_18B Av13_D_19B Av13_D_20B Av13_D_21B Av13_D_22B Av13_D_23B Av13_D_24B Av13_D_6B Av13_D_7B Av13_D_8B Av13_D_9B v2 v3 v4 v5 v6 VDD VSS 
M1 v13_D_2C AND2_229/net6 VSS VSS nmos W=0.31u L=0.04u
M2 AND2_229/X_u2-net6 CLR VSS VSS nmos W=0.31u L=0.04u
M3 AND2_229/net6 Av13_D_2B AND2_229/X_u2-net6 VSS nmos W=0.31u L=0.04u
M4 v13_D_2C AND2_229/net6 VDD VDD pmos W=0.41u L=0.04u
M5 AND2_229/net6 CLR VDD VDD pmos W=0.41u L=0.04u
M6 AND2_229/net6 Av13_D_2B VDD VDD pmos W=0.41u L=0.04u
M7 v13_D_4C AND2_228/net6 VSS VSS nmos W=0.31u L=0.04u
M8 AND2_228/X_u2-net6 CLR VSS VSS nmos W=0.31u L=0.04u
M9 AND2_228/net6 Av13_D_4B AND2_228/X_u2-net6 VSS nmos W=0.31u L=0.04u
M10 v13_D_4C AND2_228/net6 VDD VDD pmos W=0.41u L=0.04u
M11 AND2_228/net6 CLR VDD VDD pmos W=0.41u L=0.04u
M12 AND2_228/net6 Av13_D_4B VDD VDD pmos W=0.41u L=0.04u
M13 v13_D_5C AND2_227/net6 VSS VSS nmos W=0.31u L=0.04u
M14 AND2_227/X_u2-net6 CLR VSS VSS nmos W=0.31u L=0.04u
M15 AND2_227/net6 Av13_D_5B AND2_227/X_u2-net6 VSS nmos W=0.31u L=0.04u
M16 v13_D_5C AND2_227/net6 VDD VDD pmos W=0.41u L=0.04u
M17 AND2_227/net6 CLR VDD VDD pmos W=0.41u L=0.04u
M18 AND2_227/net6 Av13_D_5B VDD VDD pmos W=0.41u L=0.04u
M19 v13_D_1C AND2_226/net6 VSS VSS nmos W=0.31u L=0.04u
M20 AND2_226/X_u2-net6 CLR VSS VSS nmos W=0.31u L=0.04u
M21 AND2_226/net6 Av13_D_1B AND2_226/X_u2-net6 VSS nmos W=0.31u L=0.04u
M22 v13_D_1C AND2_226/net6 VDD VDD pmos W=0.41u L=0.04u
M23 AND2_226/net6 CLR VDD VDD pmos W=0.41u L=0.04u
M24 AND2_226/net6 Av13_D_1B VDD VDD pmos W=0.41u L=0.04u
M25 v13_D_3C AND2_225/net6 VSS VSS nmos W=0.31u L=0.04u
M26 AND2_225/X_u2-net6 CLR VSS VSS nmos W=0.31u L=0.04u
M27 AND2_225/net6 Av13_D_3B AND2_225/X_u2-net6 VSS nmos W=0.31u L=0.04u
M28 v13_D_3C AND2_225/net6 VDD VDD pmos W=0.41u L=0.04u
M29 AND2_225/net6 CLR VDD VDD pmos W=0.41u L=0.04u
M30 AND2_225/net6 Av13_D_3B VDD VDD pmos W=0.41u L=0.04u
M31 v13_D_0C AND2_224/net6 VSS VSS nmos W=0.31u L=0.04u
M32 AND2_224/X_u2-net6 CLR VSS VSS nmos W=0.31u L=0.04u
M33 AND2_224/net6 Av13_D_0B AND2_224/X_u2-net6 VSS nmos W=0.31u L=0.04u
M34 v13_D_0C AND2_224/net6 VDD VDD pmos W=0.41u L=0.04u
M35 AND2_224/net6 CLR VDD VDD pmos W=0.41u L=0.04u
M36 AND2_224/net6 Av13_D_0B VDD VDD pmos W=0.41u L=0.04u
M37 Av13_D_9B v12 U274/net10 VSS nmos W=0.155u L=0.04u
M38 U274/net10 n257 VSS VSS nmos W=0.155u L=0.04u
M39 Av13_D_9B n255 U274/net10 VSS nmos W=0.155u L=0.04u
M40 U274/net10 n256 VSS VSS nmos W=0.155u L=0.04u
M41 U274/net30 n257 VDD VDD pmos W=0.205u L=0.04u
M42 Av13_D_9B v12 U274/net24 VDD pmos W=0.205u L=0.04u
M43 U274/net24 n255 VDD VDD pmos W=0.205u L=0.04u
M44 Av13_D_9B n256 U274/net30 VDD pmos W=0.205u L=0.04u
M45 VSS n259 U275/net22 VSS nmos W=0.155u L=0.04u
M46 U275/net22 n258 U275/net30 VSS nmos W=0.155u L=0.04u
M47 U275/net22 v7 U275/net30 VSS nmos W=0.155u L=0.04u
M48 U275/net22 v2 U275/net30 VSS nmos W=0.155u L=0.04u
M49 n256 U275/net30 VSS VSS nmos W=0.155u L=0.04u
M50 n256 U275/net30 VDD VDD pmos W=0.205u L=0.04u
M51 U275/net38 v2 VDD VDD pmos W=0.205u L=0.04u
M52 U275/net35 v7 U275/net38 VDD pmos W=0.205u L=0.04u
M53 U275/net30 n258 U275/net35 VDD pmos W=0.205u L=0.04u
M54 U275/net30 n259 VDD VDD pmos W=0.205u L=0.04u
M55 U276/net29 n263 VSS VSS nmos W=0.155u L=0.04u
M56 n255 n262 U276/net29 VSS nmos W=0.155u L=0.04u
M57 n255 n260 U276/net23 VSS nmos W=0.155u L=0.04u
M58 U276/net23 n261 VSS VSS nmos W=0.155u L=0.04u
M59 U276/net20 n261 n255 VDD pmos W=0.205u L=0.04u
M60 U276/net20 n260 n255 VDD pmos W=0.205u L=0.04u
M61 VDD n262 U276/net20 VDD pmos W=0.205u L=0.04u
M62 VDD n263 U276/net20 VDD pmos W=0.205u L=0.04u
M63 U277/p2 n266 VSS VSS nmos W=0.155u L=0.04u
M64 U277/p0 n264 U277/p1 VSS nmos W=0.155u L=0.04u
M65 U277/p1 n265 U277/p2 VSS nmos W=0.155u L=0.04u
M66 Av13_D_8B n259 U277/p0 VSS nmos W=0.155u L=0.04u
M67 Av13_D_8B n265 VDD VDD pmos W=0.205u L=0.04u
M68 Av13_D_8B n264 VDD VDD pmos W=0.205u L=0.04u
M69 Av13_D_8B n259 VDD VDD pmos W=0.205u L=0.04u
M70 Av13_D_8B n266 VDD VDD pmos W=0.205u L=0.04u
M71 U278/net11 n267 n266 VDD pmos W=0.205u L=0.04u
M72 U278/net11 n268 n266 VDD pmos W=0.205u L=0.04u
M73 U278/net11 n269 U278/XI16-net11 VDD pmos W=0.205u L=0.04u
M74 U278/XI16-net11 n270 VDD VDD pmos W=0.205u L=0.04u
M75 n266 n270 VSS VSS nmos W=0.155u L=0.04u
M76 n266 n269 VSS VSS nmos W=0.155u L=0.04u
M77 n266 n267 U278/XI12-net17 VSS nmos W=0.155u L=0.04u
M78 U278/XI12-net17 n268 VSS VSS nmos W=0.155u L=0.04u
M79 n270 n271 U279/net19 VDD pmos W=0.205u L=0.04u
M80 n270 n273 U279/net19 VDD pmos W=0.205u L=0.04u
M81 n270 n272 U279/net19 VDD pmos W=0.205u L=0.04u
M82 U279/net19 v7 VDD VDD pmos W=0.205u L=0.04u
M83 n270 v7 VSS VSS nmos W=0.155u L=0.04u
M84 U279/XI20-net13 n273 VSS VSS nmos W=0.155u L=0.04u
M85 n270 n271 U279/XI20-net17 VSS nmos W=0.155u L=0.04u
M86 U279/XI20-net17 n272 U279/XI20-net13 VSS nmos W=0.155u L=0.04u
M87 U280/net11 n274 n273 VDD pmos W=0.205u L=0.04u
M88 U280/net11 n275 n273 VDD pmos W=0.205u L=0.04u
M89 U280/net11 n276 U280/XI16-net11 VDD pmos W=0.205u L=0.04u
M90 U280/XI16-net11 n262 VDD VDD pmos W=0.205u L=0.04u
M91 n273 n262 VSS VSS nmos W=0.155u L=0.04u
M92 n273 n276 VSS VSS nmos W=0.155u L=0.04u
M93 n273 n274 U280/XI12-net17 VSS nmos W=0.155u L=0.04u
M94 U280/XI12-net17 n275 VSS VSS nmos W=0.155u L=0.04u
M95 U281/net19 n279 VSS VSS nmos W=0.155u L=0.04u
M96 n272 n279 U281/net40 VSS nmos W=0.155u L=0.04u
M97 n272 U281/net19 U281/net36 VSS nmos W=0.155u L=0.04u
M98 U281/net40 n278 VSS VSS nmos W=0.31u L=0.04u
M99 U281/net36 n277 VSS VSS nmos W=0.155u L=0.04u
M100 U281/net19 n279 VDD VDD pmos W=0.205u L=0.04u
M101 n272 U281/net19 U281/net26 VDD pmos W=0.325u L=0.04u
M102 U281/net26 n278 VDD VDD pmos W=0.41u L=0.04u
M103 n272 n279 U281/net30 VDD pmos W=0.325u L=0.04u
M104 U281/net30 n277 VDD VDD pmos W=0.205u L=0.04u
M105 n278 v12 VSS VSS nmos W=0.155u L=0.04u
M106 n278 n280 VSS VSS nmos W=0.155u L=0.04u
M107 U282/XI1-net8 n280 VDD VDD pmos W=0.205u L=0.04u
M108 n278 v12 U282/XI1-net8 VDD pmos W=0.205u L=0.04u
M109 U283/net29 n257 VSS VSS nmos W=0.155u L=0.04u
M110 n271 n282 U283/net29 VSS nmos W=0.155u L=0.04u
M111 n271 v9 U283/net23 VSS nmos W=0.155u L=0.04u
M112 U283/net23 n281 VSS VSS nmos W=0.155u L=0.04u
M113 U283/net20 n281 n271 VDD pmos W=0.205u L=0.04u
M114 U283/net20 v9 n271 VDD pmos W=0.205u L=0.04u
M115 VDD n282 U283/net20 VDD pmos W=0.205u L=0.04u
M116 VDD n257 U283/net20 VDD pmos W=0.205u L=0.04u
M117 n269 n283 U284/net14 VSS nmos W=0.155u L=0.04u
M118 U284/net14 n287 VSS VSS nmos W=0.155u L=0.04u
M119 U284/net14 n286 VSS VSS nmos W=0.155u L=0.04u
M120 n269 n285 U284/net14 VSS nmos W=0.155u L=0.04u
M121 n269 n284 U284/net14 VSS nmos W=0.155u L=0.04u
M122 n269 n287 U284/XI16-net11 VDD pmos W=0.205u L=0.04u
M123 U284/XI16-net11 n286 VDD VDD pmos W=0.205u L=0.04u
M124 n269 n285 U284/XI15-net11 VDD pmos W=0.205u L=0.04u
M125 U284/XI15-net11 n284 U284/XI15-net18 VDD pmos W=0.205u L=0.04u
M126 U284/XI15-net18 n283 VDD VDD pmos W=0.205u L=0.04u
M127 n286 v9 U285/net27 VSS nmos W=0.155u L=0.04u
M128 U285/net27 n279 VSS VSS nmos W=0.155u L=0.04u
M129 n286 n288 VSS VSS nmos W=0.155u L=0.04u
M130 n286 n279 U285/net13 VDD pmos W=0.205u L=0.04u
M131 U285/net13 n288 VDD VDD pmos W=0.205u L=0.04u
M132 n286 v9 U285/net13 VDD pmos W=0.205u L=0.04u
M133 U286/XU1-net6 n289 VSS VSS nmos W=0.155u L=0.04u
M134 n268 n285 U286/XU1-net6 VSS nmos W=0.155u L=0.04u
M135 n268 n289 VDD VDD pmos W=0.155u L=0.04u
M136 n268 n285 VDD VDD pmos W=0.155u L=0.04u
M137 VSS n291 U287/net22 VSS nmos W=0.155u L=0.04u
M138 U287/net22 n279 U287/net30 VSS nmos W=0.155u L=0.04u
M139 U287/net22 n290 U287/net30 VSS nmos W=0.155u L=0.04u
M140 U287/net22 n289 U287/net30 VSS nmos W=0.155u L=0.04u
M141 n265 U287/net30 VSS VSS nmos W=0.155u L=0.04u
M142 n265 U287/net30 VDD VDD pmos W=0.205u L=0.04u
M143 U287/net38 n289 VDD VDD pmos W=0.205u L=0.04u
M144 U287/net35 n290 U287/net38 VDD pmos W=0.205u L=0.04u
M145 U287/net30 n279 U287/net35 VDD pmos W=0.205u L=0.04u
M146 U287/net30 n291 VDD VDD pmos W=0.205u L=0.04u
M147 U288/net36 n293 U288/net24 VSS nmos W=0.155u L=0.04u
M148 U288/net24 n294 VSS VSS nmos W=0.155u L=0.04u
M149 Av13_D_7B n290 U288/net36 VSS nmos W=0.155u L=0.04u
M150 Av13_D_7B n292 U288/net36 VSS nmos W=0.155u L=0.04u
M151 Av13_D_7B n292 U288/net35 VDD pmos W=0.205u L=0.04u
M152 U288/net35 n290 VDD VDD pmos W=0.205u L=0.04u
M153 Av13_D_7B n294 VDD VDD pmos W=0.205u L=0.04u
M154 Av13_D_7B n293 VDD VDD pmos W=0.205u L=0.04u
M155 U289/net17 n296 VSS VSS nmos W=0.155u L=0.04u
M156 U289/net17 n289 VSS VSS nmos W=0.155u L=0.04u
M157 U289/net63 n295 VSS VSS nmos W=0.155u L=0.04u
M158 n294 U289/net17 VSS VSS nmos W=0.155u L=0.04u
M159 n294 v7 U289/net63 VSS nmos W=0.155u L=0.04u
M160 n294 n295 U289/net31 VDD pmos W=0.205u L=0.04u
M161 U289/net39 n296 VDD VDD pmos W=0.195u L=0.04u
M162 U289/net31 U289/net17 VDD VDD pmos W=0.195u L=0.04u
M163 n294 v7 U289/net31 VDD pmos W=0.195u L=0.04u
M164 U289/net17 n289 U289/net39 VDD pmos W=0.195u L=0.04u
M165 U290/net8 n287 U290/net26 VSS nmos W=0.155u L=0.04u
M166 U290/net26 n299 VSS VSS nmos W=0.155u L=0.04u
M167 U290/net29 U290/net8 VSS VSS nmos W=0.155u L=0.04u
M168 U290/net29 n297 n295 VSS nmos W=0.155u L=0.04u
M169 U290/net29 n298 n295 VSS nmos W=0.155u L=0.04u
M170 U290/net8 n299 VDD VDD pmos W=0.205u L=0.04u
M171 U290/net8 n287 VDD VDD pmos W=0.205u L=0.04u
M172 n295 U290/net8 VDD VDD pmos W=0.205u L=0.04u
M173 n295 n297 U290/net20 VDD pmos W=0.205u L=0.04u
M174 U290/net20 n298 VDD VDD pmos W=0.205u L=0.04u
M175 U291/net29 n302 VSS VSS nmos W=0.155u L=0.04u
M176 n297 n288 U291/net29 VSS nmos W=0.155u L=0.04u
M177 n297 n300 U291/net23 VSS nmos W=0.155u L=0.04u
M178 U291/net23 n301 VSS VSS nmos W=0.155u L=0.04u
M179 U291/net20 n301 n297 VDD pmos W=0.205u L=0.04u
M180 U291/net20 n300 n297 VDD pmos W=0.205u L=0.04u
M181 VDD n288 U291/net20 VDD pmos W=0.205u L=0.04u
M182 VDD n302 U291/net20 VDD pmos W=0.205u L=0.04u
M183 n292 v10 U292/net19 VDD pmos W=0.205u L=0.04u
M184 n292 n304 U292/net19 VDD pmos W=0.205u L=0.04u
M185 n292 n303 U292/net19 VDD pmos W=0.205u L=0.04u
M186 U292/net19 n305 VDD VDD pmos W=0.205u L=0.04u
M187 n292 n305 VSS VSS nmos W=0.155u L=0.04u
M188 U292/XI20-net13 n304 VSS VSS nmos W=0.155u L=0.04u
M189 n292 v10 U292/XI20-net17 VSS nmos W=0.155u L=0.04u
M190 U292/XI20-net17 n303 U292/XI20-net13 VSS nmos W=0.155u L=0.04u
M191 U293/net36 n307 U293/net24 VSS nmos W=0.155u L=0.04u
M192 U293/net24 n308 VSS VSS nmos W=0.155u L=0.04u
M193 Av13_D_6B n287 U293/net36 VSS nmos W=0.155u L=0.04u
M194 Av13_D_6B n306 U293/net36 VSS nmos W=0.155u L=0.04u
M195 Av13_D_6B n306 U293/net35 VDD pmos W=0.205u L=0.04u
M196 U293/net35 n287 VDD VDD pmos W=0.205u L=0.04u
M197 Av13_D_6B n308 VDD VDD pmos W=0.205u L=0.04u
M198 Av13_D_6B n307 VDD VDD pmos W=0.205u L=0.04u
M199 U294/net17 v10 VSS VSS nmos W=0.155u L=0.04u
M200 U294/net17 n311 VSS VSS nmos W=0.155u L=0.04u
M201 U294/net63 n310 VSS VSS nmos W=0.155u L=0.04u
M202 n308 U294/net17 VSS VSS nmos W=0.155u L=0.04u
M203 n308 n309 U294/net63 VSS nmos W=0.155u L=0.04u
M204 n308 n310 U294/net31 VDD pmos W=0.205u L=0.04u
M205 U294/net39 v10 VDD VDD pmos W=0.195u L=0.04u
M206 U294/net31 U294/net17 VDD VDD pmos W=0.195u L=0.04u
M207 n308 n309 U294/net31 VDD pmos W=0.195u L=0.04u
M208 U294/net17 n311 U294/net39 VDD pmos W=0.195u L=0.04u
M209 U295/net36 n312 U295/net24 VSS nmos W=0.155u L=0.04u
M210 U295/net24 n313 VSS VSS nmos W=0.155u L=0.04u
M211 n309 v11 U295/net36 VSS nmos W=0.155u L=0.04u
M212 n309 n301 U295/net36 VSS nmos W=0.155u L=0.04u
M213 n309 n301 U295/net35 VDD pmos W=0.205u L=0.04u
M214 U295/net35 v11 VDD VDD pmos W=0.205u L=0.04u
M215 n309 n313 VDD VDD pmos W=0.205u L=0.04u
M216 n309 n312 VDD VDD pmos W=0.205u L=0.04u
M217 n313 n317 VSS VSS nmos W=0.155u L=0.04u
M218 n313 n315 U296/XI17-net17 VSS nmos W=0.155u L=0.04u
M219 U296/XI17-net17 n316 VSS VSS nmos W=0.155u L=0.04u
M220 n313 n314 U296/XI10-net17 VSS nmos W=0.155u L=0.04u
M221 U296/XI10-net17 n275 VSS VSS nmos W=0.155u L=0.04u
M222 U296/net30 n314 n313 VDD pmos W=0.205u L=0.04u
M223 U296/net30 n275 n313 VDD pmos W=0.205u L=0.04u
M224 VDD n317 U296/net36 VDD pmos W=0.205u L=0.04u
M225 U296/net36 n316 U296/net30 VDD pmos W=0.205u L=0.04u
M226 U296/net36 n315 U296/net30 VDD pmos W=0.205u L=0.04u
M227 n275 n290 VSS VSS nmos W=0.135u L=0.04u
M228 n275 n290 VDD VDD pmos W=0.205u L=0.04u
M229 n290 n318 VSS VSS nmos W=0.155u L=0.04u
M230 n290 v4 VSS VSS nmos W=0.155u L=0.04u
M231 U298/XI1-net8 v4 VDD VDD pmos W=0.205u L=0.04u
M232 n290 n318 U298/XI1-net8 VDD pmos W=0.205u L=0.04u
M233 U299/net29 n281 VSS VSS nmos W=0.155u L=0.04u
M234 n312 v9 U299/net29 VSS nmos W=0.155u L=0.04u
M235 n312 n282 U299/net23 VSS nmos W=0.155u L=0.04u
M236 U299/net23 n280 VSS VSS nmos W=0.155u L=0.04u
M237 U299/net20 n280 n312 VDD pmos W=0.205u L=0.04u
M238 U299/net20 n282 n312 VDD pmos W=0.205u L=0.04u
M239 VDD v9 U299/net20 VDD pmos W=0.205u L=0.04u
M240 VDD n281 U299/net20 VDD pmos W=0.205u L=0.04u
M241 U300/net19 n261 VSS VSS nmos W=0.155u L=0.04u
M242 n307 n261 U300/net40 VSS nmos W=0.155u L=0.04u
M243 n307 U300/net19 U300/net36 VSS nmos W=0.155u L=0.04u
M244 U300/net40 n320 VSS VSS nmos W=0.31u L=0.04u
M245 U300/net36 n319 VSS VSS nmos W=0.155u L=0.04u
M246 U300/net19 n261 VDD VDD pmos W=0.205u L=0.04u
M247 n307 U300/net19 U300/net26 VDD pmos W=0.325u L=0.04u
M248 U300/net26 n320 VDD VDD pmos W=0.41u L=0.04u
M249 n307 n261 U300/net30 VDD pmos W=0.325u L=0.04u
M250 U300/net30 n319 VDD VDD pmos W=0.205u L=0.04u
M251 n320 n321 VSS VSS nmos W=0.155u L=0.04u
M252 n320 n322 VSS VSS nmos W=0.155u L=0.04u
M253 U301/XI1-net8 n322 VDD VDD pmos W=0.205u L=0.04u
M254 n320 n321 U301/XI1-net8 VDD pmos W=0.205u L=0.04u
M255 Av13_D_5B n323 U302/XI0-net10 VSS nmos W=0.155u L=0.04u
M256 U302/XI0-net10 n324 U302/XI0-net13 VSS nmos W=0.155u L=0.04u
M257 U302/XI0-net13 n325 VSS VSS nmos W=0.155u L=0.04u
M258 Av13_D_5B n325 VDD VDD pmos W=0.205u L=0.04u
M259 Av13_D_5B n323 VDD VDD pmos W=0.205u L=0.04u
M260 Av13_D_5B n324 VDD VDD pmos W=0.205u L=0.04u
M261 n325 n306 U303/net19 VDD pmos W=0.205u L=0.04u
M262 n325 n326 U303/net19 VDD pmos W=0.205u L=0.04u
M263 n325 n302 U303/net19 VDD pmos W=0.205u L=0.04u
M264 U303/net19 n327 VDD VDD pmos W=0.205u L=0.04u
M265 n325 n327 VSS VSS nmos W=0.155u L=0.04u
M266 U303/XI20-net13 n326 VSS VSS nmos W=0.155u L=0.04u
M267 n325 n306 U303/XI20-net17 VSS nmos W=0.155u L=0.04u
M268 U303/XI20-net17 n302 U303/XI20-net13 VSS nmos W=0.155u L=0.04u
M269 U304/net15 n330 VSS VSS nmos W=0.155u L=0.04u
M270 U304/net15 n329 VSS VSS nmos W=0.155u L=0.04u
M271 n327 n258 U304/net15 VSS nmos W=0.155u L=0.04u
M272 n327 v2 U304/net15 VSS nmos W=0.155u L=0.04u
M273 U304/net15 n331 VSS VSS nmos W=0.155u L=0.04u
M274 n327 n328 U304/net15 VSS nmos W=0.155u L=0.04u
M275 n327 n331 U304/XI1-net11 VDD pmos W=0.205u L=0.04u
M276 U304/XI1-net11 n330 U304/XI1-net18 VDD pmos W=0.205u L=0.04u
M277 U304/XI1-net18 n329 VDD VDD pmos W=0.205u L=0.04u
M278 n327 n258 U304/XI7-net11 VDD pmos W=0.205u L=0.04u
M279 U304/XI7-net11 v2 U304/XI7-net18 VDD pmos W=0.205u L=0.04u
M280 U304/XI7-net18 n328 VDD VDD pmos W=0.205u L=0.04u
M281 U305/XU1-net6 n274 VSS VSS nmos W=0.155u L=0.04u
M282 n329 n314 U305/XU1-net6 VSS nmos W=0.155u L=0.04u
M283 n329 n274 VDD VDD pmos W=0.155u L=0.04u
M284 n329 n314 VDD VDD pmos W=0.155u L=0.04u
M285 U306/net29 n310 VSS VSS nmos W=0.155u L=0.04u
M286 n323 n333 U306/net29 VSS nmos W=0.155u L=0.04u
M287 n323 n332 U306/net23 VSS nmos W=0.155u L=0.04u
M288 U306/net23 v8 VSS VSS nmos W=0.155u L=0.04u
M289 U306/net20 v8 n323 VDD pmos W=0.205u L=0.04u
M290 U306/net20 n332 n323 VDD pmos W=0.205u L=0.04u
M291 VDD n333 U306/net20 VDD pmos W=0.205u L=0.04u
M292 VDD n310 U306/net20 VDD pmos W=0.205u L=0.04u
M293 U307/net36 n335 U307/net24 VSS nmos W=0.155u L=0.04u
M294 U307/net24 n336 VSS VSS nmos W=0.155u L=0.04u
M295 n333 n328 U307/net36 VSS nmos W=0.155u L=0.04u
M296 n333 n334 U307/net36 VSS nmos W=0.155u L=0.04u
M297 n333 n334 U307/net35 VDD pmos W=0.205u L=0.04u
M298 U307/net35 n328 VDD VDD pmos W=0.205u L=0.04u
M299 n333 n336 VDD VDD pmos W=0.205u L=0.04u
M300 n333 n335 VDD VDD pmos W=0.205u L=0.04u
M301 U308/net29 n338 VSS VSS nmos W=0.155u L=0.04u
M302 n336 n299 U308/net29 VSS nmos W=0.155u L=0.04u
M303 n336 n332 U308/net23 VSS nmos W=0.155u L=0.04u
M304 U308/net23 n337 VSS VSS nmos W=0.155u L=0.04u
M305 U308/net20 n337 n336 VDD pmos W=0.205u L=0.04u
M306 U308/net20 n332 n336 VDD pmos W=0.205u L=0.04u
M307 VDD n299 U308/net20 VDD pmos W=0.205u L=0.04u
M308 VDD n338 U308/net20 VDD pmos W=0.205u L=0.04u
M309 n337 v0 U309/net15 VSS nmos W=0.155u L=0.04u
M310 n337 n339 U309/net15 VSS nmos W=0.155u L=0.04u
M311 U309/net15 v11 VSS VSS nmos W=0.155u L=0.04u
M312 n337 v11 VDD VDD pmos W=0.205u L=0.04u
M313 n337 v0 U309/XI16-net11 VDD pmos W=0.205u L=0.04u
M314 U309/XI16-net11 n339 VDD VDD pmos W=0.205u L=0.04u
M315 U310/net19 n321 VSS VSS nmos W=0.155u L=0.04u
M316 n335 n321 U310/net40 VSS nmos W=0.155u L=0.04u
M317 n335 U310/net19 U310/net36 VSS nmos W=0.155u L=0.04u
M318 U310/net40 n341 VSS VSS nmos W=0.31u L=0.04u
M319 U310/net36 n340 VSS VSS nmos W=0.155u L=0.04u
M320 U310/net19 n321 VDD VDD pmos W=0.205u L=0.04u
M321 n335 U310/net19 U310/net26 VDD pmos W=0.325u L=0.04u
M322 U310/net26 n341 VDD VDD pmos W=0.41u L=0.04u
M323 n335 n321 U310/net30 VDD pmos W=0.325u L=0.04u
M324 U310/net30 n340 VDD VDD pmos W=0.205u L=0.04u
M325 n341 n322 VSS VSS nmos W=0.155u L=0.04u
M326 n341 n261 VSS VSS nmos W=0.155u L=0.04u
M327 n341 U311/net12 VSS VSS nmos W=0.155u L=0.04u
M328 U311/net12 n342 VSS VSS nmos W=0.155u L=0.04u
M329 U311/XU9-net9 U311/net12 VDD VDD pmos W=0.41u L=0.04u
M330 U311/XU9-net12 n261 U311/XU9-net9 VDD pmos W=0.41u L=0.04u
M331 n341 n322 U311/XU9-net12 VDD pmos W=0.41u L=0.04u
M332 U311/net12 n342 VDD VDD pmos W=0.31u L=0.04u
M333 U312/net36 n283 U312/net24 VSS nmos W=0.155u L=0.04u
M334 U312/net24 n344 VSS VSS nmos W=0.155u L=0.04u
M335 n340 n343 U312/net36 VSS nmos W=0.155u L=0.04u
M336 n340 n339 U312/net36 VSS nmos W=0.155u L=0.04u
M337 n340 n339 U312/net35 VDD pmos W=0.205u L=0.04u
M338 U312/net35 n343 VDD VDD pmos W=0.205u L=0.04u
M339 n340 n344 VDD VDD pmos W=0.205u L=0.04u
M340 n340 n283 VDD VDD pmos W=0.205u L=0.04u
M341 n344 n345 U313/net27 VSS nmos W=0.155u L=0.04u
M342 U313/net27 n346 VSS VSS nmos W=0.155u L=0.04u
M343 n344 n347 VSS VSS nmos W=0.155u L=0.04u
M344 n344 n346 U313/net13 VDD pmos W=0.205u L=0.04u
M345 U313/net13 n347 VDD VDD pmos W=0.205u L=0.04u
M346 n344 n345 U313/net13 VDD pmos W=0.205u L=0.04u
M347 U314/net19 n303 VSS VSS nmos W=0.155u L=0.04u
M348 n347 n303 U314/net40 VSS nmos W=0.155u L=0.04u
M349 n347 U314/net19 U314/net36 VSS nmos W=0.155u L=0.04u
M350 U314/net40 n349 VSS VSS nmos W=0.31u L=0.04u
M351 U314/net36 n348 VSS VSS nmos W=0.155u L=0.04u
M352 U314/net19 n303 VDD VDD pmos W=0.205u L=0.04u
M353 n347 U314/net19 U314/net26 VDD pmos W=0.325u L=0.04u
M354 U314/net26 n349 VDD VDD pmos W=0.41u L=0.04u
M355 n347 n303 U314/net30 VDD pmos W=0.325u L=0.04u
M356 U314/net30 n348 VDD VDD pmos W=0.205u L=0.04u
M357 U315/XU1-net6 n351 VSS VSS nmos W=0.155u L=0.04u
M358 n349 n350 U315/XU1-net6 VSS nmos W=0.155u L=0.04u
M359 n349 n351 VDD VDD pmos W=0.155u L=0.04u
M360 n349 n350 VDD VDD pmos W=0.155u L=0.04u
M361 U316/p2 n352 VSS VSS nmos W=0.155u L=0.04u
M362 U316/p0 v12 U316/p1 VSS nmos W=0.155u L=0.04u
M363 U316/p1 n263 U316/p2 VSS nmos W=0.155u L=0.04u
M364 n348 v3 U316/p0 VSS nmos W=0.155u L=0.04u
M365 n348 n263 VDD VDD pmos W=0.205u L=0.04u
M366 n348 v12 VDD VDD pmos W=0.205u L=0.04u
M367 n348 v3 VDD VDD pmos W=0.205u L=0.04u
M368 n348 n352 VDD VDD pmos W=0.205u L=0.04u
M369 U317/net36 n354 U317/net24 VSS nmos W=0.155u L=0.04u
M370 U317/net24 n355 VSS VSS nmos W=0.155u L=0.04u
M371 Av13_D_4B n298 U317/net36 VSS nmos W=0.155u L=0.04u
M372 Av13_D_4B n353 U317/net36 VSS nmos W=0.155u L=0.04u
M373 Av13_D_4B n353 U317/net35 VDD pmos W=0.205u L=0.04u
M374 U317/net35 n298 VDD VDD pmos W=0.205u L=0.04u
M375 Av13_D_4B n355 VDD VDD pmos W=0.205u L=0.04u
M376 Av13_D_4B n354 VDD VDD pmos W=0.205u L=0.04u
M377 U318/net11 n356 n355 VDD pmos W=0.205u L=0.04u
M378 U318/net11 n357 n355 VDD pmos W=0.205u L=0.04u
M379 U318/net11 n358 U318/XI16-net11 VDD pmos W=0.205u L=0.04u
M380 U318/XI16-net11 n359 VDD VDD pmos W=0.205u L=0.04u
M381 n355 n359 VSS VSS nmos W=0.155u L=0.04u
M382 n355 n358 VSS VSS nmos W=0.155u L=0.04u
M383 n355 n356 U318/XI12-net17 VSS nmos W=0.155u L=0.04u
M384 U318/XI12-net17 n357 VSS VSS nmos W=0.155u L=0.04u
M385 n359 n334 VSS VSS nmos W=0.155u L=0.04u
M386 n359 v10 VSS VSS nmos W=0.155u L=0.04u
M387 n359 n281 VSS VSS nmos W=0.155u L=0.04u
M388 U319/net25 n334 VDD VDD pmos W=0.41u L=0.04u
M389 U319/net28 v10 U319/net25 VDD pmos W=0.41u L=0.04u
M390 n359 n281 U319/net28 VDD pmos W=0.41u L=0.04u
M391 n357 U320/net27 VDD VDD pmos W=0.205u L=0.04u
M392 U320/net27 v2 U320/net23 VDD pmos W=0.205u L=0.04u
M393 U320/net27 n360 U320/net23 VDD pmos W=0.205u L=0.04u
M394 U320/net27 n284 U320/net23 VDD pmos W=0.205u L=0.04u
M395 U320/net23 n301 VDD VDD pmos W=0.205u L=0.04u
M396 U320/net23 n326 VDD VDD pmos W=0.205u L=0.04u
M397 n357 U320/net27 VSS VSS nmos W=0.155u L=0.04u
M398 U320/XI20-net13 n360 VSS VSS nmos W=0.155u L=0.04u
M399 U320/net27 v2 U320/XI20-net17 VSS nmos W=0.155u L=0.04u
M400 U320/XI20-net17 n284 U320/XI20-net13 VSS nmos W=0.155u L=0.04u
M401 U320/net27 n301 U320/XI17-net17 VSS nmos W=0.155u L=0.04u
M402 U320/XI17-net17 n326 VSS VSS nmos W=0.155u L=0.04u
M403 VSS n310 U321/net22 VSS nmos W=0.155u L=0.04u
M404 U321/net22 n363 n354 VSS nmos W=0.155u L=0.04u
M405 U321/net22 n362 n354 VSS nmos W=0.155u L=0.04u
M406 U321/net22 n361 n354 VSS nmos W=0.155u L=0.04u
M407 U321/net38 n361 VDD VDD pmos W=0.205u L=0.04u
M408 U321/net35 n362 U321/net38 VDD pmos W=0.205u L=0.04u
M409 n354 n363 U321/net35 VDD pmos W=0.205u L=0.04u
M410 n354 n310 VDD VDD pmos W=0.205u L=0.04u
M411 n363 n306 U322/net14 VSS nmos W=0.155u L=0.04u
M412 U322/net14 n287 VSS VSS nmos W=0.155u L=0.04u
M413 U322/net14 n364 VSS VSS nmos W=0.155u L=0.04u
M414 n363 n328 U322/net14 VSS nmos W=0.155u L=0.04u
M415 n363 v8 U322/net14 VSS nmos W=0.155u L=0.04u
M416 n363 n287 U322/XI16-net11 VDD pmos W=0.205u L=0.04u
M417 U322/XI16-net11 n364 VDD VDD pmos W=0.205u L=0.04u
M418 n363 n328 U322/XI15-net11 VDD pmos W=0.205u L=0.04u
M419 U322/XI15-net11 v8 U322/XI15-net18 VDD pmos W=0.205u L=0.04u
M420 U322/XI15-net18 n306 VDD VDD pmos W=0.205u L=0.04u
M421 n364 n365 U323/net27 VSS nmos W=0.155u L=0.04u
M422 U323/net27 n366 VSS VSS nmos W=0.155u L=0.04u
M423 n364 n281 VSS VSS nmos W=0.155u L=0.04u
M424 n364 n366 U323/net13 VDD pmos W=0.205u L=0.04u
M425 U323/net13 n281 VDD VDD pmos W=0.205u L=0.04u
M426 n364 n365 U323/net13 VDD pmos W=0.205u L=0.04u
M427 U324/net15 n368 VSS VSS nmos W=0.155u L=0.04u
M428 U324/net15 n365 VSS VSS nmos W=0.155u L=0.04u
M429 n362 v12 U324/net15 VSS nmos W=0.155u L=0.04u
M430 n362 v2 U324/net15 VSS nmos W=0.155u L=0.04u
M431 U324/net15 n369 VSS VSS nmos W=0.155u L=0.04u
M432 n362 n367 U324/net15 VSS nmos W=0.155u L=0.04u
M433 n362 n369 U324/XI1-net11 VDD pmos W=0.205u L=0.04u
M434 U324/XI1-net11 n368 U324/XI1-net18 VDD pmos W=0.205u L=0.04u
M435 U324/XI1-net18 n365 VDD VDD pmos W=0.205u L=0.04u
M436 n362 v12 U324/XI7-net11 VDD pmos W=0.205u L=0.04u
M437 U324/XI7-net11 v2 U324/XI7-net18 VDD pmos W=0.205u L=0.04u
M438 U324/XI7-net18 n367 VDD VDD pmos W=0.205u L=0.04u
M439 n369 n319 VSS VSS nmos W=0.135u L=0.04u
M440 n369 n319 VDD VDD pmos W=0.205u L=0.04u
M441 U326/net29 v8 VSS VSS nmos W=0.155u L=0.04u
M442 n367 n356 U326/net29 VSS nmos W=0.155u L=0.04u
M443 n367 n370 U326/net23 VSS nmos W=0.155u L=0.04u
M444 U326/net23 n371 VSS VSS nmos W=0.155u L=0.04u
M445 U326/net20 n371 n367 VDD pmos W=0.205u L=0.04u
M446 U326/net20 n370 n367 VDD pmos W=0.205u L=0.04u
M447 VDD n356 U326/net20 VDD pmos W=0.205u L=0.04u
M448 VDD v8 U326/net20 VDD pmos W=0.205u L=0.04u
M449 n361 n372 U327/net27 VSS nmos W=0.155u L=0.04u
M450 U327/net39 n375 VSS VSS nmos W=0.155u L=0.04u
M451 U327/net27 n373 U327/net39 VSS nmos W=0.155u L=0.04u
M452 U327/net27 n374 U327/net39 VSS nmos W=0.155u L=0.04u
M453 n361 v11 U327/net27 VSS nmos W=0.155u L=0.04u
M454 U327/net39 v10 VSS VSS nmos W=0.155u L=0.04u
M455 n361 n375 U327/net46 VDD pmos W=0.205u L=0.04u
M456 U327/net46 v10 VDD VDD pmos W=0.205u L=0.04u
M457 n361 v11 U327/net34 VDD pmos W=0.205u L=0.04u
M458 U327/net34 n372 VDD VDD pmos W=0.205u L=0.04u
M459 n361 n374 U327/net37 VDD pmos W=0.205u L=0.04u
M460 U327/net37 n373 VDD VDD pmos W=0.205u L=0.04u
M461 U328/net29 v9 VSS VSS nmos W=0.155u L=0.04u
M462 n373 v2 U328/net29 VSS nmos W=0.155u L=0.04u
M463 n373 n262 U328/net23 VSS nmos W=0.155u L=0.04u
M464 U328/net23 n331 VSS VSS nmos W=0.155u L=0.04u
M465 U328/net20 n331 n373 VDD pmos W=0.205u L=0.04u
M466 U328/net20 n262 n373 VDD pmos W=0.205u L=0.04u
M467 VDD v2 U328/net20 VDD pmos W=0.205u L=0.04u
M468 VDD v9 U328/net20 VDD pmos W=0.205u L=0.04u
M469 n372 n317 VSS VSS nmos W=0.155u L=0.04u
M470 n372 n288 U329/XI17-net17 VSS nmos W=0.155u L=0.04u
M471 U329/XI17-net17 n376 VSS VSS nmos W=0.155u L=0.04u
M472 n372 v9 U329/XI10-net17 VSS nmos W=0.155u L=0.04u
M473 U329/XI10-net17 v10 VSS VSS nmos W=0.155u L=0.04u
M474 U329/net30 v9 n372 VDD pmos W=0.205u L=0.04u
M475 U329/net30 v10 n372 VDD pmos W=0.205u L=0.04u
M476 VDD n317 U329/net36 VDD pmos W=0.205u L=0.04u
M477 U329/net36 n376 U329/net30 VDD pmos W=0.205u L=0.04u
M478 U329/net36 n288 U329/net30 VDD pmos W=0.205u L=0.04u
M479 U330/XU1-net6 n378 VSS VSS nmos W=0.155u L=0.04u
M480 Av13_D_3B n377 U330/XU1-net6 VSS nmos W=0.155u L=0.04u
M481 Av13_D_3B n378 VDD VDD pmos W=0.155u L=0.04u
M482 Av13_D_3B n377 VDD VDD pmos W=0.155u L=0.04u
M483 U331/net19 n310 VSS VSS nmos W=0.155u L=0.04u
M484 n378 n310 U331/net40 VSS nmos W=0.155u L=0.04u
M485 n378 U331/net19 U331/net36 VSS nmos W=0.155u L=0.04u
M486 U331/net40 n379 VSS VSS nmos W=0.31u L=0.04u
M487 U331/net36 n299 VSS VSS nmos W=0.155u L=0.04u
M488 U331/net19 n310 VDD VDD pmos W=0.205u L=0.04u
M489 n378 U331/net19 U331/net26 VDD pmos W=0.325u L=0.04u
M490 U331/net26 n379 VDD VDD pmos W=0.41u L=0.04u
M491 n378 n310 U331/net30 VDD pmos W=0.325u L=0.04u
M492 U331/net30 n299 VDD VDD pmos W=0.205u L=0.04u
M493 U332/net36 n381 U332/net24 VSS nmos W=0.155u L=0.04u
M494 U332/net24 n382 VSS VSS nmos W=0.155u L=0.04u
M495 n379 n380 U332/net36 VSS nmos W=0.155u L=0.04u
M496 n379 n321 U332/net36 VSS nmos W=0.155u L=0.04u
M497 n379 n321 U332/net35 VDD pmos W=0.205u L=0.04u
M498 U332/net35 n380 VDD VDD pmos W=0.205u L=0.04u
M499 n379 n382 VDD VDD pmos W=0.205u L=0.04u
M500 n379 n381 VDD VDD pmos W=0.205u L=0.04u
M501 n382 n385 VSS VSS nmos W=0.155u L=0.04u
M502 n382 n276 U333/XI17-net17 VSS nmos W=0.155u L=0.04u
M503 U333/XI17-net17 n262 VSS VSS nmos W=0.155u L=0.04u
M504 n382 n383 U333/XI10-net17 VSS nmos W=0.155u L=0.04u
M505 U333/XI10-net17 n384 VSS VSS nmos W=0.155u L=0.04u
M506 U333/net30 n383 n382 VDD pmos W=0.205u L=0.04u
M507 U333/net30 n384 n382 VDD pmos W=0.205u L=0.04u
M508 VDD n385 U333/net36 VDD pmos W=0.205u L=0.04u
M509 U333/net36 n262 U333/net30 VDD pmos W=0.205u L=0.04u
M510 U333/net36 n276 U333/net30 VDD pmos W=0.205u L=0.04u
M511 U334/net19 n301 VSS VSS nmos W=0.155u L=0.04u
M512 n385 n301 U334/net40 VSS nmos W=0.155u L=0.04u
M513 n385 U334/net19 U334/net36 VSS nmos W=0.155u L=0.04u
M514 U334/net40 n387 VSS VSS nmos W=0.31u L=0.04u
M515 U334/net36 n386 VSS VSS nmos W=0.155u L=0.04u
M516 U334/net19 n301 VDD VDD pmos W=0.205u L=0.04u
M517 n385 U334/net19 U334/net26 VDD pmos W=0.325u L=0.04u
M518 U334/net26 n387 VDD VDD pmos W=0.41u L=0.04u
M519 n385 n301 U334/net30 VDD pmos W=0.325u L=0.04u
M520 U334/net30 n386 VDD VDD pmos W=0.205u L=0.04u
M521 n387 v2 U335/net27 VSS nmos W=0.155u L=0.04u
M522 U335/net27 n338 VSS VSS nmos W=0.155u L=0.04u
M523 n387 n388 VSS VSS nmos W=0.155u L=0.04u
M524 n387 n338 U335/net13 VDD pmos W=0.205u L=0.04u
M525 U335/net13 n388 VDD VDD pmos W=0.205u L=0.04u
M526 n387 v2 U335/net13 VDD pmos W=0.205u L=0.04u
M527 n388 n298 U336/net14 VSS nmos W=0.155u L=0.04u
M528 U336/net14 n389 VSS VSS nmos W=0.155u L=0.04u
M529 U336/net14 v11 VSS VSS nmos W=0.155u L=0.04u
M530 n388 n366 U336/net14 VSS nmos W=0.155u L=0.04u
M531 n388 v6 U336/net14 VSS nmos W=0.155u L=0.04u
M532 n388 n389 U336/XI16-net11 VDD pmos W=0.205u L=0.04u
M533 U336/XI16-net11 v11 VDD VDD pmos W=0.205u L=0.04u
M534 n388 n366 U336/XI15-net11 VDD pmos W=0.205u L=0.04u
M535 U336/XI15-net11 v6 U336/XI15-net18 VDD pmos W=0.205u L=0.04u
M536 U336/XI15-net18 n298 VDD VDD pmos W=0.205u L=0.04u
M537 U337/net29 n365 VSS VSS nmos W=0.155u L=0.04u
M538 n389 n371 U337/net29 VSS nmos W=0.155u L=0.04u
M539 n389 n370 U337/net23 VSS nmos W=0.155u L=0.04u
M540 U337/net23 n277 VSS VSS nmos W=0.155u L=0.04u
M541 U337/net20 n277 n389 VDD pmos W=0.205u L=0.04u
M542 U337/net20 n370 n389 VDD pmos W=0.205u L=0.04u
M543 VDD n371 U337/net20 VDD pmos W=0.205u L=0.04u
M544 VDD n365 U337/net20 VDD pmos W=0.205u L=0.04u
M545 U338/XU1-net6 n390 VSS VSS nmos W=0.155u L=0.04u
M546 n386 n314 U338/XU1-net6 VSS nmos W=0.155u L=0.04u
M547 n386 n390 VDD VDD pmos W=0.155u L=0.04u
M548 n386 n314 VDD VDD pmos W=0.155u L=0.04u
M549 n381 n391 U339/net23 VDD pmos W=0.205u L=0.04u
M550 n381 n282 U339/net23 VDD pmos W=0.205u L=0.04u
M551 n381 n366 U339/net23 VDD pmos W=0.205u L=0.04u
M552 U339/net23 n338 VDD VDD pmos W=0.205u L=0.04u
M553 U339/net23 n392 VDD VDD pmos W=0.205u L=0.04u
M554 U339/XI20-net13 n282 VSS VSS nmos W=0.155u L=0.04u
M555 n381 n391 U339/XI20-net17 VSS nmos W=0.155u L=0.04u
M556 U339/XI20-net17 n366 U339/XI20-net13 VSS nmos W=0.155u L=0.04u
M557 n381 n338 U339/XI17-net17 VSS nmos W=0.155u L=0.04u
M558 U339/XI17-net17 n392 VSS VSS nmos W=0.155u L=0.04u
M559 U340/XU1-net6 n393 VSS VSS nmos W=0.155u L=0.04u
M560 n392 n370 U340/XU1-net6 VSS nmos W=0.155u L=0.04u
M561 n392 n393 VDD VDD pmos W=0.155u L=0.04u
M562 n392 n370 VDD VDD pmos W=0.155u L=0.04u
M563 VSS n300 U341/net22 VSS nmos W=0.155u L=0.04u
M564 U341/net22 n375 U341/net30 VSS nmos W=0.155u L=0.04u