.SUBCKT s38417 CK g1249 g16297 g16355 g16399 g16437 g16496 g1943 g23919 g25420 g24909 g25442 g25489 g25490 g26135 g25566 g2637 g26974 g3212 g3213 g3214 g3215 g3216 g3217 g3218 g3219 g3220 g3221 g3222 g3223 g3224 g3225 g3226 g3227 g3228 g3229 g3230 g3231 g3232 g3233 g3234 g3993 g4088 g4090 g4200 g4321 g4323 g4450 g4590 g51 g5388 g5437 g5472 g5511 g5549 g5555 g5595 g5612 g5629 g563 g5637 g5648 g5657 g5686 g5695 g5738 g5747 g5796 g6225 g6231 g6313 g6368 g6442 g6447 g6485 g6518 g6573 g6642 g6677 g6712 g6750 g6782 g6837 g6895 g6911 g6944 g6979 g7014 g7052 g7084 g7161 g7194 g7229 g7264 g7302 g7334 g7357 g7390 g7425 g7487 g7519 g7909 g7956 g7961 g8007 g8012 g8021 g8023 g8030 g8082 g8087 g8096 g8106 g8167 g8175 g8249 g8251 g1 g2 g5 g8 g11 g14 g17 g20 g23 g26 g27 g30 g33 g36 g39 g42 g45 g48 VDD VSS  
M1 g11509 g125 VSS VSS nmos W=0.31u L=0.04u
M2 g11509 g125 VDD VDD pmos W=0.41u L=0.04u
M3 g11510 g121 VSS VSS nmos W=0.31u L=0.04u
M4 g11510 g121 VDD VDD pmos W=0.41u L=0.04u
M5 g11511 g117 VSS VSS nmos W=0.31u L=0.04u
M6 g11511 g117 VDD VDD pmos W=0.41u L=0.04u
M7 g11491 g113 VSS VSS nmos W=0.31u L=0.04u
M8 g11491 g113 VDD VDD pmos W=0.41u L=0.04u
M9 g11492 g109 VSS VSS nmos W=0.31u L=0.04u
M10 g11492 g109 VDD VDD pmos W=0.41u L=0.04u
M11 g11493 g105 VSS VSS nmos W=0.31u L=0.04u
M12 g11493 g105 VDD VDD pmos W=0.41u L=0.04u
M13 g11494 g101 VSS VSS nmos W=0.31u L=0.04u
M14 g11494 g101 VDD VDD pmos W=0.41u L=0.04u
M15 g11495 g97 VSS VSS nmos W=0.31u L=0.04u
M16 g11495 g97 VDD VDD pmos W=0.41u L=0.04u
M17 g13410 g451 VSS VSS nmos W=0.31u L=0.04u
M18 g13410 g451 VDD VDD pmos W=0.41u L=0.04u
M19 g13411 g453 VSS VSS nmos W=0.31u L=0.04u
M20 g13411 g453 VDD VDD pmos W=0.41u L=0.04u
M21 g13412 g279 VSS VSS nmos W=0.31u L=0.04u
M22 g13412 g279 VDD VDD pmos W=0.41u L=0.04u
M23 g13413 g281 VSS VSS nmos W=0.31u L=0.04u
M24 g13413 g281 VDD VDD pmos W=0.41u L=0.04u
M25 g13414 g283 VSS VSS nmos W=0.31u L=0.04u
M26 g13414 g283 VDD VDD pmos W=0.41u L=0.04u
M27 g13415 g285 VSS VSS nmos W=0.31u L=0.04u
M28 g13415 g285 VDD VDD pmos W=0.41u L=0.04u
M29 g13416 g287 VSS VSS nmos W=0.31u L=0.04u
M30 g13416 g287 VDD VDD pmos W=0.41u L=0.04u
M31 g13417 g289 VSS VSS nmos W=0.31u L=0.04u
M32 g13417 g289 VDD VDD pmos W=0.41u L=0.04u
M33 g13418 g291 VSS VSS nmos W=0.31u L=0.04u
M34 g13418 g291 VDD VDD pmos W=0.41u L=0.04u
M35 g11536 g813 VSS VSS nmos W=0.31u L=0.04u
M36 g11536 g813 VDD VDD pmos W=0.41u L=0.04u
M37 g11537 g809 VSS VSS nmos W=0.31u L=0.04u
M38 g11537 g809 VDD VDD pmos W=0.41u L=0.04u
M39 g11538 g805 VSS VSS nmos W=0.31u L=0.04u
M40 g11538 g805 VDD VDD pmos W=0.41u L=0.04u
M41 g11518 g801 VSS VSS nmos W=0.31u L=0.04u
M42 g11518 g801 VDD VDD pmos W=0.41u L=0.04u
M43 g11519 g797 VSS VSS nmos W=0.31u L=0.04u
M44 g11519 g797 VDD VDD pmos W=0.41u L=0.04u
M45 g11520 g793 VSS VSS nmos W=0.31u L=0.04u
M46 g11520 g793 VDD VDD pmos W=0.41u L=0.04u
M47 g11521 g789 VSS VSS nmos W=0.31u L=0.04u
M48 g11521 g789 VDD VDD pmos W=0.41u L=0.04u
M49 g11522 g785 VSS VSS nmos W=0.31u L=0.04u
M50 g11522 g785 VDD VDD pmos W=0.41u L=0.04u
M51 g13426 g1138 VSS VSS nmos W=0.31u L=0.04u
M52 g13426 g1138 VDD VDD pmos W=0.41u L=0.04u
M53 g13427 g1140 VSS VSS nmos W=0.31u L=0.04u
M54 g13427 g1140 VDD VDD pmos W=0.41u L=0.04u
M55 g13428 g966 VSS VSS nmos W=0.31u L=0.04u
M56 g13428 g966 VDD VDD pmos W=0.41u L=0.04u
M57 g13429 g968 VSS VSS nmos W=0.31u L=0.04u
M58 g13429 g968 VDD VDD pmos W=0.41u L=0.04u
M59 g13430 g970 VSS VSS nmos W=0.31u L=0.04u
M60 g13430 g970 VDD VDD pmos W=0.41u L=0.04u
M61 g13431 g972 VSS VSS nmos W=0.31u L=0.04u
M62 g13431 g972 VDD VDD pmos W=0.41u L=0.04u
M63 g13432 g974 VSS VSS nmos W=0.31u L=0.04u
M64 g13432 g974 VDD VDD pmos W=0.41u L=0.04u
M65 g13433 g976 VSS VSS nmos W=0.31u L=0.04u
M66 g13433 g976 VDD VDD pmos W=0.41u L=0.04u
M67 g13434 g978 VSS VSS nmos W=0.31u L=0.04u
M68 g13434 g978 VDD VDD pmos W=0.41u L=0.04u
M69 g11563 g1506 VSS VSS nmos W=0.31u L=0.04u
M70 g11563 g1506 VDD VDD pmos W=0.41u L=0.04u
M71 g11564 g1501 VSS VSS nmos W=0.31u L=0.04u
M72 g11564 g1501 VDD VDD pmos W=0.41u L=0.04u
M73 g11565 g1496 VSS VSS nmos W=0.31u L=0.04u
M74 g11565 g1496 VDD VDD pmos W=0.41u L=0.04u
M75 g11545 g1491 VSS VSS nmos W=0.31u L=0.04u
M76 g11545 g1491 VDD VDD pmos W=0.41u L=0.04u
M77 g11546 g1486 VSS VSS nmos W=0.31u L=0.04u
M78 g11546 g1486 VDD VDD pmos W=0.41u L=0.04u
M79 g11547 g1481 VSS VSS nmos W=0.31u L=0.04u
M80 g11547 g1481 VDD VDD pmos W=0.41u L=0.04u
M81 g11548 g1476 VSS VSS nmos W=0.31u L=0.04u
M82 g11548 g1476 VDD VDD pmos W=0.41u L=0.04u
M83 g11549 g1471 VSS VSS nmos W=0.31u L=0.04u
M84 g11549 g1471 VDD VDD pmos W=0.41u L=0.04u
M85 g13442 g1832 VSS VSS nmos W=0.31u L=0.04u
M86 g13442 g1832 VDD VDD pmos W=0.41u L=0.04u
M87 g13443 g1834 VSS VSS nmos W=0.31u L=0.04u
M88 g13443 g1834 VDD VDD pmos W=0.41u L=0.04u
M89 g13444 g1660 VSS VSS nmos W=0.31u L=0.04u
M90 g13444 g1660 VDD VDD pmos W=0.41u L=0.04u
M91 g13445 g1662 VSS VSS nmos W=0.31u L=0.04u
M92 g13445 g1662 VDD VDD pmos W=0.41u L=0.04u
M93 g13446 g1664 VSS VSS nmos W=0.31u L=0.04u
M94 g13446 g1664 VDD VDD pmos W=0.41u L=0.04u
M95 g13447 g1666 VSS VSS nmos W=0.31u L=0.04u
M96 g13447 g1666 VDD VDD pmos W=0.41u L=0.04u
M97 g13448 g1668 VSS VSS nmos W=0.31u L=0.04u
M98 g13448 g1668 VDD VDD pmos W=0.41u L=0.04u
M99 g13449 g1670 VSS VSS nmos W=0.31u L=0.04u
M100 g13449 g1670 VDD VDD pmos W=0.41u L=0.04u
M101 g13450 g1672 VSS VSS nmos W=0.31u L=0.04u
M102 g13450 g1672 VDD VDD pmos W=0.41u L=0.04u
M103 g11590 g2200 VSS VSS nmos W=0.31u L=0.04u
M104 g11590 g2200 VDD VDD pmos W=0.41u L=0.04u
M105 g11591 g2195 VSS VSS nmos W=0.31u L=0.04u
M106 g11591 g2195 VDD VDD pmos W=0.41u L=0.04u
M107 g11592 g2190 VSS VSS nmos W=0.31u L=0.04u
M108 g11592 g2190 VDD VDD pmos W=0.41u L=0.04u
M109 g11572 g2185 VSS VSS nmos W=0.31u L=0.04u
M110 g11572 g2185 VDD VDD pmos W=0.41u L=0.04u
M111 g11573 g2180 VSS VSS nmos W=0.31u L=0.04u
M112 g11573 g2180 VDD VDD pmos W=0.41u L=0.04u
M113 g11574 g2175 VSS VSS nmos W=0.31u L=0.04u
M114 g11574 g2175 VDD VDD pmos W=0.41u L=0.04u
M115 g11575 g2170 VSS VSS nmos W=0.31u L=0.04u
M116 g11575 g2170 VDD VDD pmos W=0.41u L=0.04u
M117 g11576 g2165 VSS VSS nmos W=0.31u L=0.04u
M118 g11576 g2165 VDD VDD pmos W=0.41u L=0.04u
M119 g13458 g2526 VSS VSS nmos W=0.31u L=0.04u
M120 g13458 g2526 VDD VDD pmos W=0.41u L=0.04u
M121 g13459 g2528 VSS VSS nmos W=0.31u L=0.04u
M122 g13459 g2528 VDD VDD pmos W=0.41u L=0.04u
M123 g13460 g2354 VSS VSS nmos W=0.31u L=0.04u
M124 g13460 g2354 VDD VDD pmos W=0.41u L=0.04u
M125 g13461 g2356 VSS VSS nmos W=0.31u L=0.04u
M126 g13461 g2356 VDD VDD pmos W=0.41u L=0.04u
M127 g13462 g2358 VSS VSS nmos W=0.31u L=0.04u
M128 g13462 g2358 VDD VDD pmos W=0.41u L=0.04u
M129 g13463 g2360 VSS VSS nmos W=0.31u L=0.04u
M130 g13463 g2360 VDD VDD pmos W=0.41u L=0.04u
M131 g13464 g2362 VSS VSS nmos W=0.31u L=0.04u
M132 g13464 g2362 VDD VDD pmos W=0.41u L=0.04u
M133 g13465 g2364 VSS VSS nmos W=0.31u L=0.04u
M134 g13465 g2364 VDD VDD pmos W=0.41u L=0.04u
M135 g13466 g2366 VSS VSS nmos W=0.31u L=0.04u
M136 g13466 g2366 VDD VDD pmos W=0.41u L=0.04u
M137 g16476 n638 VSS VSS nmos W=0.31u L=0.04u
M138 g16476 n638 VDD VDD pmos W=0.41u L=0.04u
M139 g16477 n654 VSS VSS nmos W=0.31u L=0.04u
M140 g16477 n654 VDD VDD pmos W=0.41u L=0.04u
M141 g16478 n653 VSS VSS nmos W=0.31u L=0.04u
M142 g16478 n653 VDD VDD pmos W=0.41u L=0.04u
M143 g16479 n652 VSS VSS nmos W=0.31u L=0.04u
M144 g16479 n652 VDD VDD pmos W=0.41u L=0.04u
M145 g16480 n651 VSS VSS nmos W=0.31u L=0.04u
M146 g16480 n651 VDD VDD pmos W=0.41u L=0.04u
M147 g16481 n650 VSS VSS nmos W=0.31u L=0.04u
M148 g16481 n650 VDD VDD pmos W=0.41u L=0.04u
M149 g16482 n649 VSS VSS nmos W=0.31u L=0.04u
M150 g16482 n649 VDD VDD pmos W=0.41u L=0.04u
M151 g16483 n648 VSS VSS nmos W=0.31u L=0.04u
M152 g16483 n648 VDD VDD pmos W=0.41u L=0.04u
M153 g16484 n647 VSS VSS nmos W=0.31u L=0.04u
M154 g16484 n647 VDD VDD pmos W=0.41u L=0.04u
M155 g16485 n658 VSS VSS nmos W=0.31u L=0.04u
M156 g16485 n658 VDD VDD pmos W=0.41u L=0.04u
M157 g16486 n646 VSS VSS nmos W=0.31u L=0.04u
M158 g16486 n646 VDD VDD pmos W=0.41u L=0.04u
M159 g16487 n645 VSS VSS nmos W=0.31u L=0.04u
M160 g16487 n645 VDD VDD pmos W=0.41u L=0.04u
M161 g16488 n644 VSS VSS nmos W=0.31u L=0.04u
M162 g16488 n644 VDD VDD pmos W=0.41u L=0.04u
M163 g16489 n643 VSS VSS nmos W=0.31u L=0.04u
M164 g16489 n643 VDD VDD pmos W=0.41u L=0.04u
M165 g16490 n642 VSS VSS nmos W=0.31u L=0.04u
M166 g16490 n642 VDD VDD pmos W=0.41u L=0.04u
M167 g16491 n641 VSS VSS nmos W=0.31u L=0.04u
M168 g16491 n641 VDD VDD pmos W=0.41u L=0.04u
M169 g16492 n640 VSS VSS nmos W=0.31u L=0.04u
M170 g16492 n640 VDD VDD pmos W=0.41u L=0.04u
M171 g16493 n639 VSS VSS nmos W=0.31u L=0.04u
M172 g16493 n639 VDD VDD pmos W=0.41u L=0.04u
M173 g11496 II14030 VSS VSS nmos W=0.31u L=0.04u
M174 g11496 II14030 VDD VDD pmos W=0.41u L=0.04u
M175 g13407 II20520 VSS VSS nmos W=0.31u L=0.04u
M176 g13407 II20520 VDD VDD pmos W=0.41u L=0.04u
M177 g11512 II18512 VSS VSS nmos W=0.31u L=0.04u
M178 g11512 II18512 VDD VDD pmos W=0.41u L=0.04u
M179 g11515 II18521 VSS VSS nmos W=0.31u L=0.04u
M180 g11515 II18521 VDD VDD pmos W=0.41u L=0.04u
M181 g11516 II18524 VSS VSS nmos W=0.31u L=0.04u
M182 g11516 II18524 VDD VDD pmos W=0.41u L=0.04u
M183 g11517 II18527 VSS VSS nmos W=0.31u L=0.04u
M184 g11517 II18527 VDD VDD pmos W=0.41u L=0.04u
M185 g11513 II18515 VSS VSS nmos W=0.31u L=0.04u
M186 g11513 II18515 VDD VDD pmos W=0.41u L=0.04u
M187 g11514 II18518 VSS VSS nmos W=0.31u L=0.04u
M188 g11514 II18518 VDD VDD pmos W=0.41u L=0.04u
M189 g11523 II14052 VSS VSS nmos W=0.31u L=0.04u
M190 g11523 II14052 VDD VDD pmos W=0.41u L=0.04u
M191 g13423 II20568 VSS VSS nmos W=0.31u L=0.04u
M192 g13423 II20568 VDD VDD pmos W=0.41u L=0.04u
M193 g11539 II18593 VSS VSS nmos W=0.31u L=0.04u
M194 g11539 II18593 VDD VDD pmos W=0.41u L=0.04u
M195 g11542 II18602 VSS VSS nmos W=0.31u L=0.04u
M196 g11542 II18602 VDD VDD pmos W=0.41u L=0.04u
M197 g11543 II18605 VSS VSS nmos W=0.31u L=0.04u
M198 g11543 II18605 VDD VDD pmos W=0.41u L=0.04u
M199 g11544 II18608 VSS VSS nmos W=0.31u L=0.04u
M200 g11544 II18608 VDD VDD pmos W=0.41u L=0.04u
M201 g11540 II18596 VSS VSS nmos W=0.31u L=0.04u
M202 g11540 II18596 VDD VDD pmos W=0.41u L=0.04u
M203 g11541 II18599 VSS VSS nmos W=0.31u L=0.04u
M204 g11541 II18599 VDD VDD pmos W=0.41u L=0.04u
M205 g11550 II14069 VSS VSS nmos W=0.31u L=0.04u
M206 g11550 II14069 VDD VDD pmos W=0.41u L=0.04u
M207 g13439 II20616 VSS VSS nmos W=0.31u L=0.04u
M208 g13439 II20616 VDD VDD pmos W=0.41u L=0.04u
M209 g11566 II18674 VSS VSS nmos W=0.31u L=0.04u
M210 g11566 II18674 VDD VDD pmos W=0.41u L=0.04u
M211 g11569 II18683 VSS VSS nmos W=0.31u L=0.04u
M212 g11569 II18683 VDD VDD pmos W=0.41u L=0.04u
M213 g11570 II18686 VSS VSS nmos W=0.31u L=0.04u
M214 g11570 II18686 VDD VDD pmos W=0.41u L=0.04u
M215 g11571 II18689 VSS VSS nmos W=0.31u L=0.04u
M216 g11571 II18689 VDD VDD pmos W=0.41u L=0.04u
M217 g11567 II18677 VSS VSS nmos W=0.31u L=0.04u
M218 g11567 II18677 VDD VDD pmos W=0.41u L=0.04u
M219 g11568 II18680 VSS VSS nmos W=0.31u L=0.04u
M220 g11568 II18680 VDD VDD pmos W=0.41u L=0.04u
M221 g11577 II14094 VSS VSS nmos W=0.31u L=0.04u
M222 g11577 II14094 VDD VDD pmos W=0.41u L=0.04u
M223 g13455 II20664 VSS VSS nmos W=0.31u L=0.04u
M224 g13455 II20664 VDD VDD pmos W=0.41u L=0.04u
M225 g11593 II18755 VSS VSS nmos W=0.31u L=0.04u
M226 g11593 II18755 VDD VDD pmos W=0.41u L=0.04u
M227 g11596 II18764 VSS VSS nmos W=0.31u L=0.04u
M228 g11596 II18764 VDD VDD pmos W=0.41u L=0.04u
M229 g11597 II18767 VSS VSS nmos W=0.31u L=0.04u
M230 g11597 II18767 VDD VDD pmos W=0.41u L=0.04u
M231 g11598 II18770 VSS VSS nmos W=0.31u L=0.04u
M232 g11598 II18770 VDD VDD pmos W=0.41u L=0.04u
M233 g11594 II18758 VSS VSS nmos W=0.31u L=0.04u
M234 g11594 II18758 VDD VDD pmos W=0.41u L=0.04u
M235 g11595 II18761 VSS VSS nmos W=0.31u L=0.04u
M236 g11595 II18761 VDD VDD pmos W=0.41u L=0.04u
M237 g16494 N159 VSS VSS nmos W=0.31u L=0.04u
M238 g16494 N159 VDD VDD pmos W=0.41u L=0.04u
M239 g20556 n3448 VSS VSS nmos W=0.31u L=0.04u
M240 g20556 n3448 VDD VDD pmos W=0.41u L=0.04u
M241 g20560 n3548 VSS VSS nmos W=0.31u L=0.04u
M242 g20560 n3548 VDD VDD pmos W=0.41u L=0.04u
M243 g20564 n3648 VSS VSS nmos W=0.31u L=0.04u
M244 g20564 n3648 VDD VDD pmos W=0.41u L=0.04u
M245 g20568 n3748 VSS VSS nmos W=0.31u L=0.04u
M246 g20568 n3748 VDD VDD pmos W=0.41u L=0.04u
M247 g19061 N466 VSS VSS nmos W=0.31u L=0.04u
M248 g19061 N466 VDD VDD pmos W=0.41u L=0.04u
M249 g19060 N461 VSS VSS nmos W=0.31u L=0.04u
M250 g19060 N461 VDD VDD pmos W=0.41u L=0.04u
M251 g21966 n3828 VSS VSS nmos W=0.31u L=0.04u
M252 g21966 n3828 VDD VDD pmos W=0.41u L=0.04u
M253 g21964 n3829 VSS VSS nmos W=0.31u L=0.04u
M254 g21964 n3829 VDD VDD pmos W=0.41u L=0.04u
M255 g25993 n3519 VSS VSS nmos W=0.31u L=0.04u
M256 g25993 n3519 VDD VDD pmos W=0.41u L=0.04u
M257 g29453 g28488 VSS VSS nmos W=0.31u L=0.04u
M258 g29453 g28488 VDD VDD pmos W=0.41u L=0.04u
M259 g29456 g28489 VSS VSS nmos W=0.31u L=0.04u
M260 g29456 g28489 VDD VDD pmos W=0.41u L=0.04u
M261 g29454 g28525 VSS VSS nmos W=0.31u L=0.04u
M262 g29454 g28525 VDD VDD pmos W=0.41u L=0.04u
M263 g29455 g28470 VSS VSS nmos W=0.31u L=0.04u
M264 g29455 g28470 VDD VDD pmos W=0.41u L=0.04u
M265 g23317 n3809 VSS VSS nmos W=0.31u L=0.04u
M266 g23317 n3809 VDD VDD pmos W=0.41u L=0.04u
M267 g23318 n3798 VSS VSS nmos W=0.31u L=0.04u
M268 g23318 n3798 VDD VDD pmos W=0.41u L=0.04u
M269 g21951 N1004 VSS VSS nmos W=0.31u L=0.04u
M270 g21951 N1004 VDD VDD pmos W=0.41u L=0.04u
M271 g21965 N1181 VSS VSS nmos W=0.31u L=0.04u
M272 g21965 N1181 VDD VDD pmos W=0.41u L=0.04u
M273 g27239 n3804 VSS VSS nmos W=0.31u L=0.04u
M274 g27239 n3804 VDD VDD pmos W=0.41u L=0.04u
M275 g27716 n3805 VSS VSS nmos W=0.31u L=0.04u
M276 g27716 n3805 VDD VDD pmos W=0.41u L=0.04u
M277 g20571 n2743 VSS VSS nmos W=0.31u L=0.04u
M278 g20571 n2743 VDD VDD pmos W=0.41u L=0.04u
M279 g20588 n2742 VSS VSS nmos W=0.31u L=0.04u
M280 g20588 n2742 VDD VDD pmos W=0.41u L=0.04u
M281 g26746 n2733 VSS VSS nmos W=0.31u L=0.04u
M282 g26746 n2733 VDD VDD pmos W=0.41u L=0.04u
M283 g26749 n3808 VSS VSS nmos W=0.31u L=0.04u
M284 g26749 n3808 VDD VDD pmos W=0.41u L=0.04u
M285 g27237 n2737 VSS VSS nmos W=0.31u L=0.04u
M286 g27237 n2737 VDD VDD pmos W=0.41u L=0.04u
M287 g27715 n2736 VSS VSS nmos W=0.31u L=0.04u
M288 g27715 n2736 VDD VDD pmos W=0.41u L=0.04u
M289 g20572 n2920 VSS VSS nmos W=0.31u L=0.04u
M290 g20572 n2920 VDD VDD pmos W=0.41u L=0.04u
M291 g20573 n2919 VSS VSS nmos W=0.31u L=0.04u
M292 g20573 n2919 VDD VDD pmos W=0.41u L=0.04u
M293 g20574 n2918 VSS VSS nmos W=0.31u L=0.04u
M294 g20574 n2918 VDD VDD pmos W=0.41u L=0.04u
M295 g20575 n2917 VSS VSS nmos W=0.31u L=0.04u
M296 g20575 n2917 VDD VDD pmos W=0.41u L=0.04u
M297 g20576 n2916 VSS VSS nmos W=0.31u L=0.04u
M298 g20576 n2916 VDD VDD pmos W=0.41u L=0.04u
M299 g20577 n2914 VSS VSS nmos W=0.31u L=0.04u
M300 g20577 n2914 VDD VDD pmos W=0.41u L=0.04u
M301 g20578 n2913 VSS VSS nmos W=0.31u L=0.04u
M302 g20578 n2913 VDD VDD pmos W=0.41u L=0.04u
M303 g20579 n2911 VSS VSS nmos W=0.31u L=0.04u
M304 g20579 n2911 VDD VDD pmos W=0.41u L=0.04u
M305 g23313 n2909 VSS VSS nmos W=0.31u L=0.04u
M306 g23313 n2909 VDD VDD pmos W=0.41u L=0.04u
M307 g21960 n2893 VSS VSS nmos W=0.31u L=0.04u
M308 g21960 n2893 VDD VDD pmos W=0.41u L=0.04u
M309 g21961 n2890 VSS VSS nmos W=0.31u L=0.04u
M310 g21961 n2890 VDD VDD pmos W=0.41u L=0.04u
M311 g21962 n2887 VSS VSS nmos W=0.31u L=0.04u
M312 g21962 n2887 VDD VDD pmos W=0.41u L=0.04u
M313 g21963 n2885 VSS VSS nmos W=0.31u L=0.04u
M314 g21963 n2885 VDD VDD pmos W=0.41u L=0.04u
M315 g21947 n2902 VSS VSS nmos W=0.31u L=0.04u
M316 g21947 n2902 VDD VDD pmos W=0.41u L=0.04u
M317 g21948 n2901 VSS VSS nmos W=0.31u L=0.04u
M318 g21948 n2901 VDD VDD pmos W=0.41u L=0.04u
M319 g21949 n2900 VSS VSS nmos W=0.31u L=0.04u
M320 g21949 n2900 VDD VDD pmos W=0.41u L=0.04u
M321 g21950 n2899 VSS VSS nmos W=0.31u L=0.04u
M322 g21950 n2899 VDD VDD pmos W=0.41u L=0.04u
M323 g21952 n2894 VSS VSS nmos W=0.31u L=0.04u
M324 g21952 n2894 VDD VDD pmos W=0.41u L=0.04u
M325 g21953 n2891 VSS VSS nmos W=0.31u L=0.04u
M326 g21953 n2891 VDD VDD pmos W=0.41u L=0.04u
M327 g21954 n2888 VSS VSS nmos W=0.31u L=0.04u
M328 g21954 n2888 VDD VDD pmos W=0.41u L=0.04u
M329 g21955 n2897 VSS VSS nmos W=0.31u L=0.04u
M330 g21955 n2897 VDD VDD pmos W=0.41u L=0.04u
M331 g21956 n2895 VSS VSS nmos W=0.31u L=0.04u
M332 g21956 n2895 VDD VDD pmos W=0.41u L=0.04u
M333 g21957 n2892 VSS VSS nmos W=0.31u L=0.04u
M334 g21957 n2892 VDD VDD pmos W=0.41u L=0.04u
M335 g21958 n2889 VSS VSS nmos W=0.31u L=0.04u
M336 g21958 n2889 VDD VDD pmos W=0.41u L=0.04u
M337 g21959 n2886 VSS VSS nmos W=0.31u L=0.04u
M338 g21959 n2886 VDD VDD pmos W=0.41u L=0.04u
M339 g20587 n2910 VSS VSS nmos W=0.31u L=0.04u
M340 g20587 n2910 VDD VDD pmos W=0.41u L=0.04u
M341 g20585 n2903 VSS VSS nmos W=0.31u L=0.04u
M342 g20585 n2903 VDD VDD pmos W=0.41u L=0.04u
M343 g20586 n2904 VSS VSS nmos W=0.31u L=0.04u
M344 g20586 n2904 VDD VDD pmos W=0.41u L=0.04u
M345 g20584 n2906 VSS VSS nmos W=0.31u L=0.04u
M346 g20584 n2906 VDD VDD pmos W=0.41u L=0.04u
M347 g20583 n2908 VSS VSS nmos W=0.31u L=0.04u
M348 g20583 n2908 VDD VDD pmos W=0.41u L=0.04u
M349 g20582 n2912 VSS VSS nmos W=0.31u L=0.04u
M350 g20582 n2912 VDD VDD pmos W=0.41u L=0.04u
M351 g20581 n2915 VSS VSS nmos W=0.31u L=0.04u
M352 g20581 n2915 VDD VDD pmos W=0.41u L=0.04u
M353 g20580 n2905 VSS VSS nmos W=0.31u L=0.04u
M354 g20580 n2905 VDD VDD pmos W=0.41u L=0.04u
M355 g23314 n2907 VSS VSS nmos W=0.31u L=0.04u
M356 g23314 n2907 VDD VDD pmos W=0.41u L=0.04u
M357 g20630 n3269 VSS VSS nmos W=0.31u L=0.04u
M358 g20630 n3269 VDD VDD pmos W=0.41u L=0.04u
M359 g20631 n3281 VSS VSS nmos W=0.31u L=0.04u
M360 g20631 n3281 VDD VDD pmos W=0.41u L=0.04u
M361 g20632 n3304 VSS VSS nmos W=0.31u L=0.04u
M362 g20632 n3304 VDD VDD pmos W=0.41u L=0.04u
M363 g20609 n3280 VSS VSS nmos W=0.31u L=0.04u
M364 g20609 n3280 VDD VDD pmos W=0.41u L=0.04u
M365 g20610 n3292 VSS VSS nmos W=0.31u L=0.04u
M366 g20610 n3292 VDD VDD pmos W=0.41u L=0.04u
M367 g20611 n3303 VSS VSS nmos W=0.31u L=0.04u
M368 g20611 n3303 VDD VDD pmos W=0.41u L=0.04u
M369 g20612 n3279 VSS VSS nmos W=0.31u L=0.04u
M370 g20612 n3279 VDD VDD pmos W=0.41u L=0.04u
M371 g20613 n3291 VSS VSS nmos W=0.31u L=0.04u
M372 g20613 n3291 VDD VDD pmos W=0.41u L=0.04u
M373 g20614 n3302 VSS VSS nmos W=0.31u L=0.04u
M374 g20614 n3302 VDD VDD pmos W=0.41u L=0.04u
M375 g20615 n3278 VSS VSS nmos W=0.31u L=0.04u
M376 g20615 n3278 VDD VDD pmos W=0.41u L=0.04u
M377 g20616 n3290 VSS VSS nmos W=0.31u L=0.04u
M378 g20616 n3290 VDD VDD pmos W=0.41u L=0.04u
M379 g20617 n3301 VSS VSS nmos W=0.31u L=0.04u
M380 g20617 n3301 VDD VDD pmos W=0.41u L=0.04u
M381 g29163 n3275 VSS VSS nmos W=0.31u L=0.04u
M382 g29163 n3275 VDD VDD pmos W=0.41u L=0.04u
M383 g29164 n3287 VSS VSS nmos W=0.31u L=0.04u
M384 g29164 n3287 VDD VDD pmos W=0.41u L=0.04u
M385 g29165 n3298 VSS VSS nmos W=0.31u L=0.04u
M386 g29165 n3298 VDD VDD pmos W=0.41u L=0.04u
M387 g30120 n3273 VSS VSS nmos W=0.31u L=0.04u
M388 g30120 n3273 VDD VDD pmos W=0.41u L=0.04u
M389 g30121 n3285 VSS VSS nmos W=0.31u L=0.04u
M390 g30121 n3285 VDD VDD pmos W=0.41u L=0.04u
M391 g30122 n3296 VSS VSS nmos W=0.31u L=0.04u
M392 g30122 n3296 VDD VDD pmos W=0.41u L=0.04u
M393 g30941 n3271 VSS VSS nmos W=0.31u L=0.04u
M394 g30941 n3271 VDD VDD pmos W=0.41u L=0.04u
M395 g30942 n3283 VSS VSS nmos W=0.31u L=0.04u
M396 g30942 n3283 VDD VDD pmos W=0.41u L=0.04u
M397 g30943 n3294 VSS VSS nmos W=0.31u L=0.04u
M398 g30943 n3294 VDD VDD pmos W=0.41u L=0.04u
M399 g20618 n3276 VSS VSS nmos W=0.31u L=0.04u
M400 g20618 n3276 VDD VDD pmos W=0.41u L=0.04u
M401 g20619 n3288 VSS VSS nmos W=0.31u L=0.04u
M402 g20619 n3288 VDD VDD pmos W=0.41u L=0.04u
M403 g20620 n3299 VSS VSS nmos W=0.31u L=0.04u
M404 g20620 n3299 VDD VDD pmos W=0.41u L=0.04u
M405 g20621 n3274 VSS VSS nmos W=0.31u L=0.04u
M406 g20621 n3274 VDD VDD pmos W=0.41u L=0.04u
M407 g20622 n3286 VSS VSS nmos W=0.31u L=0.04u
M408 g20622 n3286 VDD VDD pmos W=0.41u L=0.04u
M409 g20623 n3297 VSS VSS nmos W=0.31u L=0.04u
M410 g20623 n3297 VDD VDD pmos W=0.41u L=0.04u
M411 g20624 n3272 VSS VSS nmos W=0.31u L=0.04u
M412 g20624 n3272 VDD VDD pmos W=0.41u L=0.04u
M413 g20625 n3284 VSS VSS nmos W=0.31u L=0.04u
M414 g20625 n3284 VDD VDD pmos W=0.41u L=0.04u
M415 g20626 n3295 VSS VSS nmos W=0.31u L=0.04u
M416 g20626 n3295 VDD VDD pmos W=0.41u L=0.04u
M417 g20627 n3270 VSS VSS nmos W=0.31u L=0.04u
M418 g20627 n3270 VDD VDD pmos W=0.41u L=0.04u
M419 g20628 n3282 VSS VSS nmos W=0.31u L=0.04u
M420 g20628 n3282 VDD VDD pmos W=0.41u L=0.04u
M421 g20629 n3293 VSS VSS nmos W=0.31u L=0.04u
M422 g20629 n3293 VDD VDD pmos W=0.41u L=0.04u
M423 g24292 n3364 VSS VSS nmos W=0.31u L=0.04u
M424 g24292 n3364 VDD VDD pmos W=0.41u L=0.04u
M425 g24293 n3363 VSS VSS nmos W=0.31u L=0.04u
M426 g24293 n3363 VDD VDD pmos W=0.41u L=0.04u
M427 g24294 n3362 VSS VSS nmos W=0.31u L=0.04u
M428 g24294 n3362 VDD VDD pmos W=0.41u L=0.04u
M429 g25139 n3372 VSS VSS nmos W=0.31u L=0.04u
M430 g25139 n3372 VDD VDD pmos W=0.41u L=0.04u
M431 g25131 n3371 VSS VSS nmos W=0.31u L=0.04u
M432 g25131 n3371 VDD VDD pmos W=0.41u L=0.04u
M433 g25132 n3373 VSS VSS nmos W=0.31u L=0.04u
M434 g25132 n3373 VDD VDD pmos W=0.41u L=0.04u
M435 g25984 n3395 VSS VSS nmos W=0.31u L=0.04u
M436 g25984 n3395 VDD VDD pmos W=0.41u L=0.04u
M437 g24333 n3506 VSS VSS nmos W=0.31u L=0.04u
M438 g24333 n3506 VDD VDD pmos W=0.41u L=0.04u
M439 g24334 n3505 VSS VSS nmos W=0.31u L=0.04u
M440 g24334 n3505 VDD VDD pmos W=0.41u L=0.04u
M441 g24335 n3504 VSS VSS nmos W=0.31u L=0.04u
M442 g24335 n3504 VDD VDD pmos W=0.41u L=0.04u
M443 g25150 n3514 VSS VSS nmos W=0.31u L=0.04u
M444 g25150 n3514 VDD VDD pmos W=0.41u L=0.04u
M445 g25142 n3513 VSS VSS nmos W=0.31u L=0.04u
M446 g25142 n3513 VDD VDD pmos W=0.41u L=0.04u
M447 g25143 n3515 VSS VSS nmos W=0.31u L=0.04u
M448 g25143 n3515 VDD VDD pmos W=0.41u L=0.04u
M449 g24374 n3606 VSS VSS nmos W=0.31u L=0.04u
M450 g24374 n3606 VDD VDD pmos W=0.41u L=0.04u
M451 g24375 n3605 VSS VSS nmos W=0.31u L=0.04u
M452 g24375 n3605 VDD VDD pmos W=0.41u L=0.04u
M453 g24376 n3604 VSS VSS nmos W=0.31u L=0.04u
M454 g24376 n3604 VDD VDD pmos W=0.41u L=0.04u
M455 g25161 n3614 VSS VSS nmos W=0.31u L=0.04u
M456 g25161 n3614 VDD VDD pmos W=0.41u L=0.04u
M457 g25153 n3613 VSS VSS nmos W=0.31u L=0.04u
M458 g25153 n3613 VDD VDD pmos W=0.41u L=0.04u
M459 g25154 n3615 VSS VSS nmos W=0.31u L=0.04u
M460 g25154 n3615 VDD VDD pmos W=0.41u L=0.04u
M461 g26002 n3619 VSS VSS nmos W=0.31u L=0.04u
M462 g26002 n3619 VDD VDD pmos W=0.41u L=0.04u
M463 g24415 n3706 VSS VSS nmos W=0.31u L=0.04u
M464 g24415 n3706 VDD VDD pmos W=0.41u L=0.04u
M465 g24416 n3705 VSS VSS nmos W=0.31u L=0.04u
M466 g24416 n3705 VDD VDD pmos W=0.41u L=0.04u
M467 g24417 n3704 VSS VSS nmos W=0.31u L=0.04u
M468 g24417 n3704 VDD VDD pmos W=0.41u L=0.04u
M469 g25172 n3714 VSS VSS nmos W=0.31u L=0.04u
M470 g25172 n3714 VDD VDD pmos W=0.41u L=0.04u
M471 g25164 n3713 VSS VSS nmos W=0.31u L=0.04u
M472 g25164 n3713 VDD VDD pmos W=0.41u L=0.04u
M473 g25165 n3715 VSS VSS nmos W=0.31u L=0.04u
M474 g25165 n3715 VDD VDD pmos W=0.41u L=0.04u
M475 g26011 n3719 VSS VSS nmos W=0.31u L=0.04u
M476 g26011 n3719 VDD VDD pmos W=0.41u L=0.04u
M477 g20595 n3810 VSS VSS nmos W=0.31u L=0.04u
M478 g20595 n3810 VDD VDD pmos W=0.41u L=0.04u
M479 g20596 n3811 VSS VSS nmos W=0.31u L=0.04u
M480 g20596 n3811 VDD VDD pmos W=0.41u L=0.04u
M481 g20597 n3812 VSS VSS nmos W=0.31u L=0.04u
M482 g20597 n3812 VDD VDD pmos W=0.41u L=0.04u
M483 g20598 n3813 VSS VSS nmos W=0.31u L=0.04u
M484 g20598 n3813 VDD VDD pmos W=0.41u L=0.04u
M485 g20599 n3814 VSS VSS nmos W=0.31u L=0.04u
M486 g20599 n3814 VDD VDD pmos W=0.41u L=0.04u
M487 g20600 n3815 VSS VSS nmos W=0.31u L=0.04u
M488 g20600 n3815 VDD VDD pmos W=0.41u L=0.04u
M489 g20601 n3816 VSS VSS nmos W=0.31u L=0.04u
M490 g20601 n3816 VDD VDD pmos W=0.41u L=0.04u
M491 g20602 n3817 VSS VSS nmos W=0.31u L=0.04u
M492 g20602 n3817 VDD VDD pmos W=0.41u L=0.04u
M493 g20603 n3818 VSS VSS nmos W=0.31u L=0.04u
M494 g20603 n3818 VDD VDD pmos W=0.41u L=0.04u
M495 g20605 n3819 VSS VSS nmos W=0.31u L=0.04u
M496 g20605 n3819 VDD VDD pmos W=0.41u L=0.04u
M497 g20606 n3820 VSS VSS nmos W=0.31u L=0.04u
M498 g20606 n3820 VDD VDD pmos W=0.41u L=0.04u
M499 g20607 n3821 VSS VSS nmos W=0.31u L=0.04u
M500 g20607 n3821 VDD VDD pmos W=0.41u L=0.04u
M501 g20608 n3822 VSS VSS nmos W=0.31u L=0.04u
M502 g20608 n3822 VDD VDD pmos W=0.41u L=0.04u
M503 g20589 n3823 VSS VSS nmos W=0.31u L=0.04u
M504 g20589 n3823 VDD VDD pmos W=0.41u L=0.04u
M505 g20590 n3824 VSS VSS nmos W=0.31u L=0.04u
M506 g20590 n3824 VDD VDD pmos W=0.41u L=0.04u
M507 g20591 n3825 VSS VSS nmos W=0.31u L=0.04u
M508 g20591 n3825 VDD VDD pmos W=0.41u L=0.04u
M509 g20592 n3826 VSS VSS nmos W=0.31u L=0.04u
M510 g20592 n3826 VDD VDD pmos W=0.41u L=0.04u
M511 g20593 n3827 VSS VSS nmos W=0.31u L=0.04u
M512 g20593 n3827 VDD VDD pmos W=0.41u L=0.04u
M513 g26751 n3277 VSS VSS nmos W=0.31u L=0.04u
M514 g26751 n3277 VDD VDD pmos W=0.41u L=0.04u
M515 g26752 n3289 VSS VSS nmos W=0.31u L=0.04u
M516 g26752 n3289 VDD VDD pmos W=0.41u L=0.04u
M517 g26753 n3300 VSS VSS nmos W=0.31u L=0.04u
M518 g26753 n3300 VDD VDD pmos W=0.41u L=0.04u
M519 g29655 g28954 VSS VSS nmos W=0.31u L=0.04u
M520 g29655 g28954 VDD VDD pmos W=0.41u L=0.04u
M521 g30119 g29761 VSS VSS nmos W=0.31u L=0.04u
M522 g30119 g29761 VDD VDD pmos W=0.41u L=0.04u
M523 g30940 g30685 VSS VSS nmos W=0.31u L=0.04u
M524 g30940 g30685 VDD VDD pmos W=0.41u L=0.04u
M525 g30989 g30970 VSS VSS nmos W=0.31u L=0.04u
M526 g30989 g30970 VDD VDD pmos W=0.41u L=0.04u
M527 g23312 n2898 VSS VSS nmos W=0.31u L=0.04u
M528 g23312 n2898 VDD VDD pmos W=0.41u L=0.04u
M529 g23316 n2896 VSS VSS nmos W=0.31u L=0.04u
M530 g23316 n2896 VDD VDD pmos W=0.41u L=0.04u
M531 g27238 n3800 VSS VSS nmos W=0.31u L=0.04u
M532 g27238 n3800 VDD VDD pmos W=0.41u L=0.04u
M533 g29457 g28499 VSS VSS nmos W=0.31u L=0.04u
M534 g29457 g28499 VDD VDD pmos W=0.41u L=0.04u
M535 g29458 g28528 VSS VSS nmos W=0.31u L=0.04u
M536 g29458 g28528 VDD VDD pmos W=0.41u L=0.04u
M537 g25144 n3518 VSS VSS nmos W=0.31u L=0.04u
M538 g25144 n3518 VDD VDD pmos W=0.41u L=0.04u
M539 g25145 n3517 VSS VSS nmos W=0.31u L=0.04u
M540 g25145 n3517 VDD VDD pmos W=0.41u L=0.04u
M541 g25146 n3516 VSS VSS nmos W=0.31u L=0.04u
M542 g25146 n3516 VDD VDD pmos W=0.41u L=0.04u
M543 g25133 n3376 VSS VSS nmos W=0.31u L=0.04u
M544 g25133 n3376 VDD VDD pmos W=0.41u L=0.04u
M545 g25134 n3375 VSS VSS nmos W=0.31u L=0.04u
M546 g25134 n3375 VDD VDD pmos W=0.41u L=0.04u
M547 g25135 n3374 VSS VSS nmos W=0.31u L=0.04u
M548 g25135 n3374 VDD VDD pmos W=0.41u L=0.04u
M549 g25155 n3618 VSS VSS nmos W=0.31u L=0.04u
M550 g25155 n3618 VDD VDD pmos W=0.41u L=0.04u
M551 g25156 n3617 VSS VSS nmos W=0.31u L=0.04u
M552 g25156 n3617 VDD VDD pmos W=0.41u L=0.04u
M553 g25157 n3616 VSS VSS nmos W=0.31u L=0.04u
M554 g25157 n3616 VDD VDD pmos W=0.41u L=0.04u
M555 g25166 n3718 VSS VSS nmos W=0.31u L=0.04u
M556 g25166 n3718 VDD VDD pmos W=0.41u L=0.04u
M557 g25167 n3717 VSS VSS nmos W=0.31u L=0.04u
M558 g25167 n3717 VDD VDD pmos W=0.41u L=0.04u
M559 g25168 n3716 VSS VSS nmos W=0.31u L=0.04u
M560 g25168 n3716 VDD VDD pmos W=0.41u L=0.04u
M561 g29972 g29569 VSS VSS nmos W=0.31u L=0.04u
M562 g29972 g29569 VDD VDD pmos W=0.41u L=0.04u
M563 g29973 g29577 VSS VSS nmos W=0.31u L=0.04u
M564 g29973 g29577 VDD VDD pmos W=0.41u L=0.04u
M565 g29974 g29552 VSS VSS nmos W=0.31u L=0.04u
M566 g29974 g29552 VDD VDD pmos W=0.41u L=0.04u
M567 g29975 g29570 VSS VSS nmos W=0.31u L=0.04u
M568 g29975 g29570 VDD VDD pmos W=0.41u L=0.04u
M569 g29976 g29576 VSS VSS nmos W=0.31u L=0.04u
M570 g29976 g29576 VDD VDD pmos W=0.41u L=0.04u
M571 g29977 g29578 VSS VSS nmos W=0.31u L=0.04u
M572 g29977 g29578 VDD VDD pmos W=0.41u L=0.04u
M573 g30908 g30400 VSS VSS nmos W=0.31u L=0.04u
M574 g30908 g30400 VDD VDD pmos W=0.41u L=0.04u
M575 g30909 g30405 VSS VSS nmos W=0.31u L=0.04u
M576 g30909 g30405 VDD VDD pmos W=0.41u L=0.04u
M577 g30910 g30399 VSS VSS nmos W=0.31u L=0.04u
M578 g30910 g30399 VDD VDD pmos W=0.41u L=0.04u
M579 g30911 g30401 VSS VSS nmos W=0.31u L=0.04u
M580 g30911 g30401 VDD VDD pmos W=0.41u L=0.04u
M581 g30912 g30404 VSS VSS nmos W=0.31u L=0.04u
M582 g30912 g30404 VDD VDD pmos W=0.41u L=0.04u
M583 g30913 g30406 VSS VSS nmos W=0.31u L=0.04u
M584 g30913 g30406 VDD VDD pmos W=0.41u L=0.04u
M585 g30980 g30955 VSS VSS nmos W=0.31u L=0.04u
M586 g30980 g30955 VDD VDD pmos W=0.41u L=0.04u
M587 g30981 g30960 VSS VSS nmos W=0.31u L=0.04u
M588 g30981 g30960 VDD VDD pmos W=0.41u L=0.04u
M589 g30982 g30954 VSS VSS nmos W=0.31u L=0.04u
M590 g30982 g30954 VDD VDD pmos W=0.41u L=0.04u
M591 g30983 g30956 VSS VSS nmos W=0.31u L=0.04u
M592 g30983 g30956 VDD VDD pmos W=0.41u L=0.04u
M593 g30984 g30959 VSS VSS nmos W=0.31u L=0.04u
M594 g30984 g30959 VDD VDD pmos W=0.41u L=0.04u
M595 g30985 g30961 VSS VSS nmos W=0.31u L=0.04u
M596 g30985 g30961 VDD VDD pmos W=0.41u L=0.04u
M597 g25136 n3370 VSS VSS nmos W=0.31u L=0.04u
M598 g25136 n3370 VDD VDD pmos W=0.41u L=0.04u
M599 g25137 n3369 VSS VSS nmos W=0.31u L=0.04u
M600 g25137 n3369 VDD VDD pmos W=0.41u L=0.04u
M601 g25138 n3368 VSS VSS nmos W=0.31u L=0.04u
M602 g25138 n3368 VDD VDD pmos W=0.41u L=0.04u
M603 g25147 n3512 VSS VSS nmos W=0.31u L=0.04u
M604 g25147 n3512 VDD VDD pmos W=0.41u L=0.04u
M605 g25148 n3511 VSS VSS nmos W=0.31u L=0.04u
M606 g25148 n3511 VDD VDD pmos W=0.41u L=0.04u
M607 g25149 n3510 VSS VSS nmos W=0.31u L=0.04u
M608 g25149 n3510 VDD VDD pmos W=0.41u L=0.04u
M609 g25158 n3612 VSS VSS nmos W=0.31u L=0.04u
M610 g25158 n3612 VDD VDD pmos W=0.41u L=0.04u
M611 g25159 n3611 VSS VSS nmos W=0.31u L=0.04u
M612 g25159 n3611 VDD VDD pmos W=0.41u L=0.04u
M613 g25160 n3610 VSS VSS nmos W=0.31u L=0.04u
M614 g25160 n3610 VDD VDD pmos W=0.41u L=0.04u
M615 g25169 n3712 VSS VSS nmos W=0.31u L=0.04u
M616 g25169 n3712 VDD VDD pmos W=0.41u L=0.04u
M617 g25170 n3711 VSS VSS nmos W=0.31u L=0.04u
M618 g25170 n3711 VDD VDD pmos W=0.41u L=0.04u
M619 g25171 n3710 VSS VSS nmos W=0.31u L=0.04u
M620 g25171 n3710 VDD VDD pmos W=0.41u L=0.04u
M621 g29627 n2831 VSS VSS nmos W=0.31u L=0.04u